top1_centroid
  PyMOL2.3          3D                             0

 18 18  0  0  0  0  0  0  0  0999 V2000
  -23.9173   12.0980   27.2616 N   0  0  0  0  0  0  0  0  0  0  0  0
  -20.9829   12.1387   25.2573 C   0  0  0  0  0  0  0  0  0  0  0  0
  -20.7865   11.7425   24.1036 O   0  0  0  0  0  0  0  0  0  0  0  0
  -18.7417   13.0129   25.4967 C   0  0  0  0  0  0  0  0  0  0  0  0
  -24.4188   11.4878   26.1179 N   0  0  0  0  0  0  0  0  0  0  0  0
  -20.0232   12.7014   26.0211 O   0  0  0  0  0  0  0  0  0  0  0  0
  -18.0659   13.9116   26.5372 C   0  0  0  0  0  0  0  0  0  0  0  0
  -22.2373   11.9451   25.9488 C   0  0  0  0  0  0  0  0  0  0  0  0
  -22.5964   12.4923   27.1649 C   0  0  0  0  0  0  0  0  0  0  0  0
  -23.3088   11.2707   25.3678 C   0  0  0  0  0  0  0  0  0  0  0  0
  -18.9331   13.6601   24.6321 H   0  0  0  0  0  0  0  0  0  0  0  0
  -18.1070   12.1269   25.3381 H   0  0  0  0  0  0  0  0  0  0  0  0
  -18.5614   14.8825   26.5744 H   0  0  0  0  0  0  0  0  0  0  0  0
  -17.0016   14.0318   26.2926 H   0  0  0  0  0  0  0  0  0  0  0  0
  -18.0503   13.3682   27.4886 H   0  0  0  0  0  0  0  0  0  0  0  0
  -22.0106   13.1321   27.8021 H   0  0  0  0  0  0  0  0  0  0  0  0
  -24.5381   12.4776   27.9550 H   0  0  0  0  0  0  0  0  0  0  0  0
  -23.3720   10.8357   24.3821 H   0  0  0  0  0  0  0  0  0  0  0  0
  1  5  1  0  0  0  0
  1 17  1  0  0  0  0
  2  3  2  0  0  0  0
  2  8  1  0  0  0  0
  4  6  1  0  0  0  0
  4 11  1  0  0  0  0
  4 12  1  0  0  0  0
  5 10  1  0  0  0  0
  2  6  1  0  0  0  0
  4  7  1  0  0  0  0
  7 13  1  0  0  0  0
  7 14  1  0  0  0  0
  7 15  1  0  0  0  0
  8  9  1  0  0  0  0
  8 10  1  0  0  0  0
  1  9  1  0  0  0  0
  9 16  1  0  0  0  0
 10 18  1  0  0  0  0
M  END
>  <pdb_header>
CRYST1   99.445   99.447   99.441  90.00  90.00  90.00 P 1           1 


$$$$
