top4_centroid
  PyMOL2.3          3D                             0

 23 24  0  0  0  0  0  0  0  0999 V2000
  -14.9596   18.4352   25.7978 N   0  0  0  0  0  0  0  0  0  0  0  0
  -13.8041   18.9262   26.6600 C   0  0  0  0  0  0  0  0  0  0  0  0
  -13.8612   18.5515   28.1162 C   0  0  0  0  0  0  0  0  0  0  0  0
  -13.8006   19.5294   29.0858 N   0  0  0  0  0  0  0  0  0  0  0  0
  -13.6937   18.8889   30.2710 C   0  0  0  0  0  0  0  0  0  0  0  0
  -13.7284   17.5583   30.0920 N   0  0  0  0  0  0  0  0  0  0  0  0
  -14.0858   19.4773   31.4776 C   0  0  0  0  0  0  0  0  0  0  0  0
  -13.8866   17.3555   28.7341 N   0  0  0  0  0  0  0  0  0  0  0  0
  -14.2362   20.8397   31.3971 C   0  0  0  0  0  0  0  0  0  0  0  0
  -14.1236   21.5366   30.1067 C   0  0  0  0  0  0  0  0  0  0  0  0
  -14.0764   20.8523   28.9180 C   0  0  0  0  0  0  0  0  0  0  0  0
  -15.2766   16.9720   25.9769 C   0  0  0  0  0  0  0  0  0  0  0  0
  -15.7666   18.9599   26.1667 H   0  0  0  0  0  0  0  0  0  0  0  0
  -14.7951   18.6228   24.8017 H   0  0  0  0  0  0  0  0  0  0  0  0
  -12.9364   18.5450   26.1277 H   0  0  0  0  0  0  0  0  0  0  0  0
  -13.7613   20.0042   26.5062 H   0  0  0  0  0  0  0  0  0  0  0  0
  -14.1506   18.9968   32.4541 H   0  0  0  0  0  0  0  0  0  0  0  0
  -14.4357   21.4766   32.2539 H   0  0  0  0  0  0  0  0  0  0  0  0
  -14.1761   22.6232   30.1304 H   0  0  0  0  0  0  0  0  0  0  0  0
  -14.1170   21.3123   27.9381 H   0  0  0  0  0  0  0  0  0  0  0  0
  -15.3661   16.7581   27.0459 H   0  0  0  0  0  0  0  0  0  0  0  0
  -14.5136   16.3546   25.4914 H   0  0  0  0  0  0  0  0  0  0  0  0
  -16.1787   16.6738   25.4533 H   0  0  0  0  0  0  0  0  0  0  0  0
  1  2  1  0  0  0  0
  1 13  1  0  0  0  0
  1 14  1  0  0  0  0
  2  3  1  0  0  0  0
  2 15  1  0  0  0  0
  2 16  1  0  0  0  0
  3  4  1  0  0  0  0
  3  8  1  0  0  0  0
  4  5  1  0  0  0  0
  4 11  1  0  0  0  0
  5  7  1  0  0  0  0
  5  6  1  0  0  0  0
  7  9  1  0  0  0  0
  7 17  1  0  0  0  0
  6  8  1  0  0  0  0
  9 10  1  0  0  0  0
  9 18  1  0  0  0  0
 10 11  1  0  0  0  0
 10 19  1  0  0  0  0
 11 20  1  0  0  0  0
  1 12  1  0  0  0  0
 12 21  1  0  0  0  0
 12 22  1  0  0  0  0
 12 23  1  0  0  0  0
M  END
>  <pdb_header>
CRYST1   99.144   99.146   99.140  90.00  90.00  90.00 P 1           1 


$$$$
