top3_centroid
  PyMOL2.3          3D                             0

 29 30  0  0  0  0  0  0  0  0999 V2000
  -17.0980   16.4608   26.4424 N   0  0  0  0  0  0  0  0  0  0  0  0
  -18.2183   15.9639   26.9866 C   0  0  0  0  0  0  0  0  0  0  0  0
  -18.9990   16.5767   27.7339 O   0  0  0  0  0  0  0  0  0  0  0  0
  -16.3270   17.5719   26.7581 C   0  0  0  0  0  0  0  0  0  0  0  0
  -15.6541   19.5218   27.5401 N   0  0  0  0  0  0  0  0  0  0  0  0
  -16.6462   18.5168   27.6424 C   0  0  0  0  0  0  0  0  0  0  0  0
  -14.6788   19.1238   26.6071 N   0  0  0  0  0  0  0  0  0  0  0  0
  -15.7784   20.9079   27.9791 C   0  0  0  0  0  0  0  0  0  0  0  0
  -16.9513   21.6982   27.3674 C   0  0  0  0  0  0  0  0  0  0  0  0
  -15.1072   17.9826   26.1214 C   0  0  0  0  0  0  0  0  0  0  0  0
  -18.0512   14.6206   26.3149 C   0  0  0  0  0  0  0  0  0  0  0  0
  -18.0082   13.7514   27.6122 C   0  0  0  0  0  0  0  0  0  0  0  0
  -18.9310   12.8038   26.7079 C   0  0  0  0  0  0  0  0  0  0  0  0
  -19.5856   14.0896   26.2477 C   0  0  0  0  0  0  0  0  0  0  0  0
  -16.7301   15.8150   25.7487 H   0  0  0  0  0  0  0  0  0  0  0  0
  -17.5646   18.5915   28.2134 H   0  0  0  0  0  0  0  0  0  0  0  0
  -15.8032   21.0148   29.0701 H   0  0  0  0  0  0  0  0  0  0  0  0
  -14.8700   21.4869   27.7748 H   0  0  0  0  0  0  0  0  0  0  0  0
  -17.8815   21.1414   27.5706 H   0  0  0  0  0  0  0  0  0  0  0  0
  -17.0563   22.7030   27.8020 H   0  0  0  0  0  0  0  0  0  0  0  0
  -16.7978   21.8196   26.2844 H   0  0  0  0  0  0  0  0  0  0  0  0
  -14.5105   17.4641   25.3831 H   0  0  0  0  0  0  0  0  0  0  0  0
  -17.4617   14.4154   25.4130 H   0  0  0  0  0  0  0  0  0  0  0  0
  -18.4541   14.1738   28.5182 H   0  0  0  0  0  0  0  0  0  0  0  0
  -17.0686   13.3083   27.9579 H   0  0  0  0  0  0  0  0  0  0  0  0
  -19.5551   12.0768   27.2515 H   0  0  0  0  0  0  0  0  0  0  0  0
  -18.5187   12.2087   25.8855 H   0  0  0  0  0  0  0  0  0  0  0  0
  -20.3045   14.5016   26.9642 H   0  0  0  0  0  0  0  0  0  0  0  0
  -20.0646   13.9717   25.2719 H   0  0  0  0  0  0  0  0  0  0  0  0
  1  2  1  0  0  0  0
  1 15  1  0  0  0  0
  2  3  2  0  0  0  0
  2 11  1  0  0  0  0
  1  4  1  0  0  0  0
  5  6  1  0  0  0  0
  5  7  1  0  0  0  0
  4  6  1  0  0  0  0
  6 16  1  0  0  0  0
  7 10  1  0  0  0  0
  5  8  1  0  0  0  0
  8 17  1  0  0  0  0
  8 18  1  0  0  0  0
  8  9  1  0  0  0  0
  9 19  1  0  0  0  0
  9 20  1  0  0  0  0
  9 21  1  0  0  0  0
  4 10  1  0  0  0  0
 10 22  1  0  0  0  0
 11 12  1  0  0  0  0
 11 14  1  0  0  0  0
 11 23  1  0  0  0  0
 12 13  1  0  0  0  0
 12 24  1  0  0  0  0
 12 25  1  0  0  0  0
 13 14  1  0  0  0  0
 13 26  1  0  0  0  0
 13 27  1  0  0  0  0
 14 28  1  0  0  0  0
 14 29  1  0  0  0  0
M  END
>  <pdb_header>
CRYST1   99.207   99.209   99.203  90.00  90.00  90.00 P 1           1 


$$$$
