top1_centroid
  PyMOL2.3          3D                             0

 27 27  0  0  0  0  0  0  0  0999 V2000
  -18.4738   20.9199   28.1315 N   0  0  0  0  0  0  0  0  0  0  0  0
  -18.6009   18.5754   26.8507 C   0  0  0  0  0  0  0  0  0  0  0  0
  -17.5728   21.1320   26.1400 O   0  0  0  0  0  0  0  0  0  0  0  0
  -17.3684   17.9921   26.7452 C   0  0  0  0  0  0  0  0  0  0  0  0
  -18.7146   13.4827   26.5369 N   0  0  0  0  0  0  0  0  0  0  0  0
  -19.9941   20.8465   26.4632 O   0  0  0  0  0  0  0  0  0  0  0  0
  -17.2727   16.5815   26.9237 C   0  0  0  0  0  0  0  0  0  0  0  0
  -20.7653   13.1562   27.3958 O   0  0  0  0  0  0  0  0  0  0  0  0
  -18.3846   15.7900   27.3760 C   0  0  0  0  0  0  0  0  0  0  0  0
  -18.2326   14.2764   27.6721 C   0  0  0  0  0  0  0  0  0  0  0  0
  -19.9899   12.9980   26.5018 C   0  0  0  0  0  0  0  0  0  0  0  0
  -20.2339   12.0080   25.3980 C   0  0  0  0  0  0  0  0  0  0  0  0
  -19.6526   16.4251   27.3818 C   0  0  0  0  0  0  0  0  0  0  0  0
  -19.7814   17.8091   27.1630 C   0  0  0  0  0  0  0  0  0  0  0  0
  -18.7099   20.3710   26.6885 S   0  0  0  0  0  0  0  0  0  0  0  0
  -18.8127   21.8413   27.8603 H   0  0  0  0  0  0  0  0  0  0  0  0
  -17.4785   20.8824   27.9358 H   0  0  0  0  0  0  0  0  0  0  0  0
  -16.4712   18.5671   26.5480 H   0  0  0  0  0  0  0  0  0  0  0  0
  -16.3139   16.0724   26.8450 H   0  0  0  0  0  0  0  0  0  0  0  0
  -18.7128   14.1187   28.6519 H   0  0  0  0  0  0  0  0  0  0  0  0
  -17.1453   14.1657   27.7611 H   0  0  0  0  0  0  0  0  0  0  0  0
  -18.0572   13.1960   25.8188 H   0  0  0  0  0  0  0  0  0  0  0  0
  -19.8774   12.4681   24.4667 H   0  0  0  0  0  0  0  0  0  0  0  0
  -19.4960   11.2058   25.4979 H   0  0  0  0  0  0  0  0  0  0  0  0
  -21.2638   11.6406   25.4432 H   0  0  0  0  0  0  0  0  0  0  0  0
  -20.5469   15.8390   27.5979 H   0  0  0  0  0  0  0  0  0  0  0  0
  -20.7924   18.1994   27.0949 H   0  0  0  0  0  0  0  0  0  0  0  0
  1 16  1  0  0  0  0
  1 17  1  0  0  0  0
  2  4  1  0  0  0  0
  2 14  1  0  0  0  0
  3 15  1  0  0  0  0
  4  7  1  0  0  0  0
  4 18  1  0  0  0  0
  5 11  1  0  0  0  0
  5 22  1  0  0  0  0
  7  9  1  0  0  0  0
  7 19  1  0  0  0  0
  9 10  1  0  0  0  0
  5 10  1  0  0  0  0
 10 20  1  0  0  0  0
 10 21  1  0  0  0  0
  8 11  1  0  0  0  0
 11 12  1  0  0  0  0
 12 23  1  0  0  0  0
 12 24  1  0  0  0  0
 12 25  1  0  0  0  0
  9 13  1  0  0  0  0
 13 26  1  0  0  0  0
 13 14  1  0  0  0  0
 14 27  1  0  0  0  0
  1 15  1  0  0  0  0
  2 15  1  0  0  0  0
  6 15  1  0  0  0  0
M  END
>  <pdb_header>
CRYST1   99.207   99.209   99.203  90.00  90.00  90.00 P 1           1 


$$$$
