top4_centroid
  PyMOL2.3          3D                             0

 29 30  0  0  0  0  0  0  0  0999 V2000
  -21.6136   13.0045   27.9160 N   0  0  0  0  0  0  0  0  0  0  0  0
  -23.4977   11.5762   24.3986 C   0  0  0  0  0  0  0  0  0  0  0  0
  -21.1172   11.7077   23.5398 O   0  0  0  0  0  0  0  0  0  0  0  0
  -21.9211   11.3410   24.7125 C   0  0  0  0  0  0  0  0  0  0  0  0
  -20.6369   13.5959   27.1749 N   0  0  0  0  0  0  0  0  0  0  0  0
  -21.4455   12.0322   25.9206 C   0  0  0  0  0  0  0  0  0  0  0  0
  -22.1976   12.0581   27.1523 C   0  0  0  0  0  0  0  0  0  0  0  0
  -19.7961   14.6209   27.7936 C   0  0  0  0  0  0  0  0  0  0  0  0
  -18.3332   14.6251   27.4688 C   0  0  0  0  0  0  0  0  0  0  0  0
  -17.8698   16.1280   27.5431 C   0  0  0  0  0  0  0  0  0  0  0  0
  -19.2201   16.9593   27.6332 C   0  0  0  0  0  0  0  0  0  0  0  0
  -20.3680   16.0557   27.5578 C   0  0  0  0  0  0  0  0  0  0  0  0
  -20.4949   12.9200   25.9295 C   0  0  0  0  0  0  0  0  0  0  0  0
  -23.5606   12.3098   23.5893 H   0  0  0  0  0  0  0  0  0  0  0  0
  -24.0931   11.9339   25.2445 H   0  0  0  0  0  0  0  0  0  0  0  0
  -24.0135   10.7054   23.9624 H   0  0  0  0  0  0  0  0  0  0  0  0
  -20.2045   11.7564   23.8691 H   0  0  0  0  0  0  0  0  0  0  0  0
  -23.0574   11.5265   27.5527 H   0  0  0  0  0  0  0  0  0  0  0  0
  -19.8585   14.3933   28.8655 H   0  0  0  0  0  0  0  0  0  0  0  0
  -17.8330   13.9827   28.2119 H   0  0  0  0  0  0  0  0  0  0  0  0
  -18.1373   14.2225   26.4742 H   0  0  0  0  0  0  0  0  0  0  0  0
  -17.0656   16.3257   28.2571 H   0  0  0  0  0  0  0  0  0  0  0  0
  -17.2963   16.2109   26.6110 H   0  0  0  0  0  0  0  0  0  0  0  0
  -19.2809   17.8107   26.9382 H   0  0  0  0  0  0  0  0  0  0  0  0
  -19.1853   17.3933   28.6418 H   0  0  0  0  0  0  0  0  0  0  0  0
  -20.7151   16.1239   26.5189 H   0  0  0  0  0  0  0  0  0  0  0  0
  -21.1468   16.3162   28.2903 H   0  0  0  0  0  0  0  0  0  0  0  0
  -19.8178   13.3494   25.2057 H   0  0  0  0  0  0  0  0  0  0  0  0
  -21.8963   10.2635   24.9459 H   0  0  0  0  0  0  0  0  0  0  0  0
  1  5  1  0  0  0  0
  2  4  1  0  0  0  0
  2 14  1  0  0  0  0
  2 15  1  0  0  0  0
  2 16  1  0  0  0  0
  3 17  1  0  0  0  0
  3  4  1  0  0  0  0
  4  6  1  0  0  0  0
  4 29  1  0  0  0  0
  5  8  1  0  0  0  0
  6  7  1  0  0  0  0
  6 13  1  0  0  0  0
  1  7  1  0  0  0  0
  7 18  1  0  0  0  0
  8  9  1  0  0  0  0
  8 12  1  0  0  0  0
  8 19  1  0  0  0  0
  9 10  1  0  0  0  0
  9 20  1  0  0  0  0
  9 21  1  0  0  0  0
 10 11  1  0  0  0  0
 10 22  1  0  0  0  0
 10 23  1  0  0  0  0
 11 12  1  0  0  0  0
 11 24  1  0  0  0  0
 11 25  1  0  0  0  0
 12 26  1  0  0  0  0
 12 27  1  0  0  0  0
  5 13  1  0  0  0  0
 13 28  1  0  0  0  0
M  END
>  <pdb_header>
CRYST1   99.182   99.184   99.178  90.00  90.00  90.00 P 1           1 


$$$$
