top4_centroid
  PyMOL2.3          3D                             0

 32 33  0  0  0  0  0  0  0  0999 V2000
  -18.3759   14.9263   28.5374 N   0  0  0  0  0  0  0  0  0  0  0  0
  -17.5721   14.3956   27.5839 C   0  0  0  0  0  0  0  0  0  0  0  0
  -17.8396   14.3761   26.3881 O   0  0  0  0  0  0  0  0  0  0  0  0
  -15.4296   13.1654   27.4714 C   0  0  0  0  0  0  0  0  0  0  0  0
  -24.3694   20.7670   25.5492 N   0  0  0  0  0  0  0  0  0  0  0  0
  -16.5264   13.7249   28.2192 O   0  0  0  0  0  0  0  0  0  0  0  0
  -19.6257   15.7144   28.4634 C   0  0  0  0  0  0  0  0  0  0  0  0
  -20.6431   15.2755   29.3152 C   0  0  0  0  0  0  0  0  0  0  0  0
  -21.7741   16.1236   29.4003 C   0  0  0  0  0  0  0  0  0  0  0  0
  -21.7999   17.3551   28.7118 C   0  0  0  0  0  0  0  0  0  0  0  0
  -23.0622   18.2744   28.8912 C   0  0  0  0  0  0  0  0  0  0  0  0
  -23.5037   19.2321   27.7407 C   0  0  0  0  0  0  0  0  0  0  0  0
  -22.7875   20.2765   27.2251 C   0  0  0  0  0  0  0  0  0  0  0  0
  -23.1888   21.0280   26.1235 C   0  0  0  0  0  0  0  0  0  0  0  0
  -25.1704   19.7994   26.0242 C   0  0  0  0  0  0  0  0  0  0  0  0
  -24.7846   18.9695   27.0444 C   0  0  0  0  0  0  0  0  0  0  0  0
  -20.8073   17.6581   27.7770 C   0  0  0  0  0  0  0  0  0  0  0  0
  -19.6996   16.8852   27.6883 C   0  0  0  0  0  0  0  0  0  0  0  0
  -15.6086   12.4911   26.6262 H   0  0  0  0  0  0  0  0  0  0  0  0
  -14.6196   12.7899   28.1144 H   0  0  0  0  0  0  0  0  0  0  0  0
  -15.0054   13.9832   26.8702 H   0  0  0  0  0  0  0  0  0  0  0  0
  -18.1025   14.4989   29.4231 H   0  0  0  0  0  0  0  0  0  0  0  0
  -20.5954   14.3449   29.8646 H   0  0  0  0  0  0  0  0  0  0  0  0
  -22.6670   15.8092   29.9441 H   0  0  0  0  0  0  0  0  0  0  0  0
  -23.0788   18.7729   29.8667 H   0  0  0  0  0  0  0  0  0  0  0  0
  -23.8460   17.5095   28.8214 H   0  0  0  0  0  0  0  0  0  0  0  0
  -21.8664   20.5951   27.7001 H   0  0  0  0  0  0  0  0  0  0  0  0
  -22.5109   21.7666   25.6991 H   0  0  0  0  0  0  0  0  0  0  0  0
  -26.1389   19.7120   25.5376 H   0  0  0  0  0  0  0  0  0  0  0  0
  -25.3857   18.1116   27.3440 H   0  0  0  0  0  0  0  0  0  0  0  0
  -20.9628   18.4751   27.0820 H   0  0  0  0  0  0  0  0  0  0  0  0
  -18.9543   17.2275   26.9788 H   0  0  0  0  0  0  0  0  0  0  0  0
  1  7  1  0  0  0  0
  1 22  1  0  0  0  0
  1  2  1  0  0  0  0
  2  3  2  0  0  0  0
  4  6  1  0  0  0  0
  4 19  1  0  0  0  0
  4 20  1  0  0  0  0
  4 21  1  0  0  0  0
  5 15  1  0  0  0  0
  2  6  1  0  0  0  0
  7  8  1  0  0  0  0
  7 18  1  0  0  0  0
  8  9  1  0  0  0  0
  8 23  1  0  0  0  0
  9 10  1  0  0  0  0
  9 24  1  0  0  0  0
 10 11  1  0  0  0  0
 11 12  1  0  0  0  0
 11 25  1  0  0  0  0
 11 26  1  0  0  0  0
 12 13  1  0  0  0  0
 12 16  1  0  0  0  0
 13 14  1  0  0  0  0
 13 27  1  0  0  0  0
  5 14  1  0  0  0  0
 14 28  1  0  0  0  0
 15 16  1  0  0  0  0
 15 29  1  0  0  0  0
 16 30  1  0  0  0  0
 10 17  1  0  0  0  0
 17 31  1  0  0  0  0
 17 18  1  0  0  0  0
 18 32  1  0  0  0  0
M  END
>  <pdb_header>
CRYST1   99.046   99.048   99.042  90.00  90.00  90.00 P 1           1 


$$$$
