top5_centroid
  PyMOL2.3          3D                             0

 35 37  0  0  0  0  0  0  0  0999 V2000
  -20.0386   11.8629   26.1929 N   0  0  0  0  0  0  0  0  0  0  0  0
  -16.9978   12.4487   23.3524 C   0  0  0  0  0  0  0  0  0  0  0  0
  -24.8332   12.4736   27.0496 O   0  0  0  0  0  0  0  0  0  0  0  0
  -17.6390   13.5759   23.8969 C   0  0  0  0  0  0  0  0  0  0  0  0
  -22.7188   12.0131   27.4885 N   0  0  0  0  0  0  0  0  0  0  0  0
  -18.6981   13.3837   24.7471 C   0  0  0  0  0  0  0  0  0  0  0  0
  -19.0920   12.1189   25.1941 C   0  0  0  0  0  0  0  0  0  0  0  0
  -20.2650   12.7351   27.3722 C   0  0  0  0  0  0  0  0  0  0  0  0
  -21.4910   12.4310   28.1725 C   0  0  0  0  0  0  0  0  0  0  0  0
  -23.9466   12.4184   27.8744 C   0  0  0  0  0  0  0  0  0  0  0  0
  -24.1184   12.7608   29.3233 C   0  0  0  0  0  0  0  0  0  0  0  0
  -25.4079   13.2803   29.8924 C   0  0  0  0  0  0  0  0  0  0  0  0
  -24.3115   14.2532   29.6992 C   0  0  0  0  0  0  0  0  0  0  0  0
  -22.4854   11.5438   26.1357 C   0  0  0  0  0  0  0  0  0  0  0  0
  -21.1113   10.8296   25.9354 C   0  0  0  0  0  0  0  0  0  0  0  0
  -18.5354   10.9959   24.5296 C   0  0  0  0  0  0  0  0  0  0  0  0
  -17.4708   11.1642   23.5729 C   0  0  0  0  0  0  0  0  0  0  0  0
  -15.9674   12.7075   22.5387 F   0  0  0  0  0  0  0  0  0  0  0  0
  -17.2379   14.5716   23.7100 H   0  0  0  0  0  0  0  0  0  0  0  0
  -19.1601   14.2493   25.2105 H   0  0  0  0  0  0  0  0  0  0  0  0
  -19.3928   12.7299   28.0408 H   0  0  0  0  0  0  0  0  0  0  0  0
  -20.1564   13.8000   27.1155 H   0  0  0  0  0  0  0  0  0  0  0  0
  -21.8431   13.3060   28.7331 H   0  0  0  0  0  0  0  0  0  0  0  0
  -21.1438   11.6391   28.8406 H   0  0  0  0  0  0  0  0  0  0  0  0
  -23.5670   12.1680   30.0512 H   0  0  0  0  0  0  0  0  0  0  0  0
  -26.2861   13.3881   29.2578 H   0  0  0  0  0  0  0  0  0  0  0  0
  -25.6555   12.9891   30.9112 H   0  0  0  0  0  0  0  0  0  0  0  0
  -24.3613   15.0165   28.9222 H   0  0  0  0  0  0  0  0  0  0  0  0
  -23.7876   14.5824   30.5835 H   0  0  0  0  0  0  0  0  0  0  0  0
  -23.3465   10.9061   25.9033 H   0  0  0  0  0  0  0  0  0  0  0  0
  -22.4487   12.3943   25.4491 H   0  0  0  0  0  0  0  0  0  0  0  0
  -20.9593   10.4114   24.9288 H   0  0  0  0  0  0  0  0  0  0  0  0
  -21.0434    9.9006   26.5117 H   0  0  0  0  0  0  0  0  0  0  0  0
  -18.8801   10.0189   24.8428 H   0  0  0  0  0  0  0  0  0  0  0  0
  -17.0463   10.3085   23.0568 H   0  0  0  0  0  0  0  0  0  0  0  0
  1  8  1  0  0  0  0
  1 15  1  0  0  0  0
  2 17  1  0  0  0  0
  2 18  1  0  0  0  0
  2  4  1  0  0  0  0
  4 19  1  0  0  0  0
  5 10  1  0  0  0  0
  4  6  1  0  0  0  0
  6  7  1  0  0  0  0
  6 20  1  0  0  0  0
  1  7  1  0  0  0  0
  8  9  1  0  0  0  0
  8 21  1  0  0  0  0
  8 22  1  0  0  0  0
  5  9  1  0  0  0  0
  9 23  1  0  0  0  0
  9 24  1  0  0  0  0
  3 10  1  0  0  0  0
 10 11  1  0  0  0  0
 11 12  1  0  0  0  0
 11 13  1  0  0  0  0
 11 25  1  0  0  0  0
 12 13  1  0  0  0  0
 12 26  1  0  0  0  0
 12 27  1  0  0  0  0
 13 28  1  0  0  0  0
 13 29  1  0  0  0  0
  5 14  1  0  0  0  0
 14 30  1  0  0  0  0
 14 31  1  0  0  0  0
 14 15  1  0  0  0  0
 15 32  1  0  0  0  0
 15 33  1  0  0  0  0
  7 16  1  0  0  0  0
 16 34  1  0  0  0  0
 16 17  1  0  0  0  0
 17 35  1  0  0  0  0
M  END
>  <pdb_header>
CRYST1   99.188   99.190   99.184  90.00  90.00  90.00 P 1           1 


$$$$
