top1_centroid
  PyMOL2.3          3D                             0

 30 33  0  0  0  0  0  0  0  0999 V2000
  -18.6609   13.6534   26.4144 N   0  0  0  0  0  0  0  0  0  0  0  0
  -18.7864   12.7676   27.5822 C   0  0  0  0  0  0  0  0  0  0  0  0
  -17.5271   11.9841   27.9496 C   0  0  0  0  0  0  0  0  0  0  0  0
  -18.5791   11.8763   24.7245 N   0  0  0  0  0  0  0  0  0  0  0  0
  -18.7857   15.0727   26.6483 C   0  0  0  0  0  0  0  0  0  0  0  0
  -19.7151   11.2825   24.9664 N   0  0  0  0  0  0  0  0  0  0  0  0
  -20.1775   15.3898   27.2607 C   0  0  0  0  0  0  0  0  0  0  0  0
  -18.3739   10.1543   23.5061 N   0  0  0  0  0  0  0  0  0  0  0  0
  -18.1877   13.1276   25.2366 C   0  0  0  0  0  0  0  0  0  0  0  0
  -16.7516   11.7440   23.0884 N   0  0  0  0  0  0  0  0  0  0  0  0
  -19.4664   10.1792   24.3403 C   0  0  0  0  0  0  0  0  0  0  0  0
  -17.8669   11.2892   23.7761 C   0  0  0  0  0  0  0  0  0  0  0  0
  -16.2667   12.8491   23.6869 C   0  0  0  0  0  0  0  0  0  0  0  0
  -15.0220   13.4955   23.2462 C   0  0  0  0  0  0  0  0  0  0  0  0
  -17.0760   13.6351   24.6381 C   0  0  0  0  0  0  0  0  0  0  0  0
  -18.8874   13.4025   28.4730 H   0  0  0  0  0  0  0  0  0  0  0  0
  -19.6448   12.0777   27.5789 H   0  0  0  0  0  0  0  0  0  0  0  0
  -17.0506   11.4245   27.1389 H   0  0  0  0  0  0  0  0  0  0  0  0
  -17.8083   11.3639   28.8122 H   0  0  0  0  0  0  0  0  0  0  0  0
  -16.7303   12.5849   28.4227 H   0  0  0  0  0  0  0  0  0  0  0  0
  -17.9483   15.4042   27.2716 H   0  0  0  0  0  0  0  0  0  0  0  0
  -18.6534   15.5751   25.6818 H   0  0  0  0  0  0  0  0  0  0  0  0
  -20.9446   15.1507   26.5099 H   0  0  0  0  0  0  0  0  0  0  0  0
  -20.3269   16.4512   27.4934 H   0  0  0  0  0  0  0  0  0  0  0  0
  -20.4267   14.7566   28.1258 H   0  0  0  0  0  0  0  0  0  0  0  0
  -20.1279    9.3105   24.3562 H   0  0  0  0  0  0  0  0  0  0  0  0
  -14.8963   13.2800   22.1808 H   0  0  0  0  0  0  0  0  0  0  0  0
  -14.0839   13.1515   23.7046 H   0  0  0  0  0  0  0  0  0  0  0  0
  -15.0219   14.5833   23.3437 H   0  0  0  0  0  0  0  0  0  0  0  0
  -16.6102   14.5257   25.0377 H   0  0  0  0  0  0  0  0  0  0  0  0
  1  5  1  0  0  0  0
  1  9  1  0  0  0  0
  1  2  1  0  0  0  0
  2 16  1  0  0  0  0
  2 17  1  0  0  0  0
  2  3  1  0  0  0  0
  3 18  1  0  0  0  0
  3 19  1  0  0  0  0
  3 20  1  0  0  0  0
  4  6  1  0  0  0  0
  4 11  1  0  0  0  0
  4 12  1  0  0  0  0
  5  7  1  0  0  0  0
  5 21  1  0  0  0  0
  5 22  1  0  0  0  0
  6 11  1  0  0  0  0
  7 23  1  0  0  0  0
  7 24  1  0  0  0  0
  7 25  1  0  0  0  0
  8 12  1  0  0  0  0
  4  9  1  0  0  0  0
  9 15  1  0  0  0  0
 10 13  1  0  0  0  0
  8 11  1  0  0  0  0
 11 12  1  0  0  0  0
 11 26  1  0  0  0  0
 10 12  1  0  0  0  0
 13 14  1  0  0  0  0
 14 27  1  0  0  0  0
 14 28  1  0  0  0  0
 14 29  1  0  0  0  0
 13 15  1  0  0  0  0
 15 30  1  0  0  0  0
M  END
>  <pdb_header>
CRYST1   99.180   99.182   99.176  90.00  90.00  90.00 P 1           1 


$$$$
