top1_centroid
  PyMOL2.3          3D                             0

 23 24  0  0  0  0  0  0  0  0999 V2000
  -19.9397   14.1600   27.5203 N   0  0  0  0  0  0  0  0  0  0  0  0
  -20.6367   15.3937   27.4149 C   0  0  0  0  0  0  0  0  0  0  0  0
  -21.8617   15.3824   27.5043 O   0  0  0  0  0  0  0  0  0  0  0  0
  -18.5246   13.9864   27.0944 C   0  0  0  0  0  0  0  0  0  0  0  0
  -19.7248   18.8230   26.9235 N   0  0  0  0  0  0  0  0  0  0  0  0
  -18.3361   12.4740   26.8833 C   0  0  0  0  0  0  0  0  0  0  0  0
  -18.5052   18.2887   27.1434 N   0  0  0  0  0  0  0  0  0  0  0  0
  -19.3706   11.8562   27.8722 C   0  0  0  0  0  0  0  0  0  0  0  0
  -20.5273   12.8681   27.8969 C   0  0  0  0  0  0  0  0  0  0  0  0
  -19.9789   16.6548   27.2490 C   0  0  0  0  0  0  0  0  0  0  0  0
  -20.6584   17.8429   27.0754 C   0  0  0  0  0  0  0  0  0  0  0  0
  -18.6173   16.9796   27.3433 C   0  0  0  0  0  0  0  0  0  0  0  0
  -18.3974   14.4880   26.1199 H   0  0  0  0  0  0  0  0  0  0  0  0
  -17.9245   14.4306   27.9045 H   0  0  0  0  0  0  0  0  0  0  0  0
  -18.5513   12.3479   25.8185 H   0  0  0  0  0  0  0  0  0  0  0  0
  -17.3080   12.1661   27.1209 H   0  0  0  0  0  0  0  0  0  0  0  0
  -18.8820   11.8389   28.8543 H   0  0  0  0  0  0  0  0  0  0  0  0
  -19.6800   10.8999   27.4341 H   0  0  0  0  0  0  0  0  0  0  0  0
  -20.9781   12.9162   28.8972 H   0  0  0  0  0  0  0  0  0  0  0  0
  -21.3512   12.6522   27.2013 H   0  0  0  0  0  0  0  0  0  0  0  0
  -21.6906   17.9981   26.8119 H   0  0  0  0  0  0  0  0  0  0  0  0
  -19.8556   19.7983   26.7121 H   0  0  0  0  0  0  0  0  0  0  0  0
  -17.7019   16.4461   27.5389 H   0  0  0  0  0  0  0  0  0  0  0  0
  1  2  1  0  0  0  0
  2  3  2  0  0  0  0
  2 10  1  0  0  0  0
  1  4  1  0  0  0  0
  4 13  1  0  0  0  0
  4 14  1  0  0  0  0
  5  7  1  0  0  0  0
  5 22  1  0  0  0  0
  4  6  1  0  0  0  0
  6 15  1  0  0  0  0
  6 16  1  0  0  0  0
  7 12  1  0  0  0  0
  6  8  1  0  0  0  0
  8  9  1  0  0  0  0
  8 17  1  0  0  0  0
  8 18  1  0  0  0  0
  1  9  1  0  0  0  0
  9 19  1  0  0  0  0
  9 20  1  0  0  0  0
 10 11  1  0  0  0  0
 10 12  1  0  0  0  0
  5 11  1  0  0  0  0
 11 21  1  0  0  0  0
 12 23  1  0  0  0  0
M  END
>  <pdb_header>
CRYST1   99.227   99.228   99.223  90.00  90.00  90.00 P 1           1 


$$$$
