top5_centroid
  PyMOL2.3          3D                             0

 20 20  0  0  0  0  0  0  0  0999 V2000
  -15.0383   18.2570   25.6691 N   0  0  0  0  0  0  0  0  0  0  0  0
  -17.1041   19.3618   27.1595 C   0  0  0  0  0  0  0  0  0  0  0  0
  -14.4266   19.2387   27.5821 O   0  0  0  0  0  0  0  0  0  0  0  0
  -18.3513   18.6985   27.2164 C   0  0  0  0  0  0  0  0  0  0  0  0
  -15.7145   16.9996   27.2306 O   0  0  0  0  0  0  0  0  0  0  0  0
  -19.5022   19.4573   27.3380 C   0  0  0  0  0  0  0  0  0  0  0  0
  -19.4585   20.8583   27.2554 C   0  0  0  0  0  0  0  0  0  0  0  0
  -18.1879   21.4977   27.1617 C   0  0  0  0  0  0  0  0  0  0  0  0
  -18.0353   22.9956   27.1423 C   0  0  0  0  0  0  0  0  0  0  0  0
  -17.0662   20.7505   27.1867 C   0  0  0  0  0  0  0  0  0  0  0  0
  -20.6895   18.8973   27.5463 F   0  0  0  0  0  0  0  0  0  0  0  0
  -15.5170   18.4476   27.1394 S   0  0  0  0  0  0  0  0  0  0  0  0
  -14.1690   18.7730   25.8314 H   0  0  0  0  0  0  0  0  0  0  0  0
  -14.6850   17.3092   25.8062 H   0  0  0  0  0  0  0  0  0  0  0  0
  -18.3764   17.6150   27.2209 H   0  0  0  0  0  0  0  0  0  0  0  0
  -20.3555   21.4855   27.2414 H   0  0  0  0  0  0  0  0  0  0  0  0
  -17.2065   23.2820   27.8013 H   0  0  0  0  0  0  0  0  0  0  0  0
  -18.9039   23.4715   27.6132 H   0  0  0  0  0  0  0  0  0  0  0  0
  -17.6883   23.4547   26.2017 H   0  0  0  0  0  0  0  0  0  0  0  0
  -16.0902   21.1929   27.3352 H   0  0  0  0  0  0  0  0  0  0  0  0
  1 13  1  0  0  0  0
  1 14  1  0  0  0  0
  2  4  1  0  0  0  0
  2 10  1  0  0  0  0
  3 12  1  0  0  0  0
  4  6  1  0  0  0  0
  4 15  1  0  0  0  0
  6  7  1  0  0  0  0
  6 11  1  0  0  0  0
  7  8  1  0  0  0  0
  7 16  1  0  0  0  0
  8  9  1  0  0  0  0
  9 17  1  0  0  0  0
  9 18  1  0  0  0  0
  9 19  1  0  0  0  0
  8 10  1  0  0  0  0
 10 20  1  0  0  0  0
  1 12  1  0  0  0  0
  2 12  1  0  0  0  0
  5 12  1  0  0  0  0
M  END
>  <pdb_header>
CRYST1   99.222   99.224   99.219  90.00  90.00  90.00 P 1           1 


$$$$
