top5_centroid
  PyMOL2.3          3D                             0

 32 33  0  0  0  0  0  0  0  0999 V2000
  -15.7858   17.9562   26.9338 N   0  0  0  0  0  0  0  0  0  0  0  0
  -16.8060   18.7395   27.4167 C   0  0  0  0  0  0  0  0  0  0  0  0
  -17.8250   18.3145   27.8424 O   0  0  0  0  0  0  0  0  0  0  0  0
  -15.7748   16.5565   26.8948 C   0  0  0  0  0  0  0  0  0  0  0  0
  -16.1529   14.5294   27.1289 N   0  0  0  0  0  0  0  0  0  0  0  0
  -16.7054   15.7113   27.3753 C   0  0  0  0  0  0  0  0  0  0  0  0
  -14.9812   14.5072   26.4692 N   0  0  0  0  0  0  0  0  0  0  0  0
  -16.6762   13.2473   27.6736 C   0  0  0  0  0  0  0  0  0  0  0  0
  -18.1220   12.9751   27.1144 C   0  0  0  0  0  0  0  0  0  0  0  0
  -14.7303   15.7918   26.2994 C   0  0  0  0  0  0  0  0  0  0  0  0
  -16.5526   20.2683   27.3027 C   0  0  0  0  0  0  0  0  0  0  0  0
  -17.4994   20.9636   26.4349 C   0  0  0  0  0  0  0  0  0  0  0  0
  -17.7674   22.2547   27.1193 C   0  0  0  0  0  0  0  0  0  0  0  0
  -16.8309   22.4063   28.2568 C   0  0  0  0  0  0  0  0  0  0  0  0
  -16.6257   20.9598   28.6155 C   0  0  0  0  0  0  0  0  0  0  0  0
  -15.0926   18.4966   26.4410 H   0  0  0  0  0  0  0  0  0  0  0  0
  -17.5596   15.9377   27.9938 H   0  0  0  0  0  0  0  0  0  0  0  0
  -15.9087   12.4770   27.5959 H   0  0  0  0  0  0  0  0  0  0  0  0
  -16.7651   13.4053   28.7601 H   0  0  0  0  0  0  0  0  0  0  0  0
  -18.0619   12.8454   26.0230 H   0  0  0  0  0  0  0  0  0  0  0  0
  -18.7814   13.8351   27.3137 H   0  0  0  0  0  0  0  0  0  0  0  0
  -18.4889   12.0139   27.4967 H   0  0  0  0  0  0  0  0  0  0  0  0
  -13.7958   16.1162   25.8752 H   0  0  0  0  0  0  0  0  0  0  0  0
  -15.5577   20.3739   26.8408 H   0  0  0  0  0  0  0  0  0  0  0  0
  -16.9317   21.1999   25.5279 H   0  0  0  0  0  0  0  0  0  0  0  0
  -18.3899   20.3877   26.1597 H   0  0  0  0  0  0  0  0  0  0  0  0
  -17.6597   23.1154   26.4514 H   0  0  0  0  0  0  0  0  0  0  0  0
  -18.7543   22.1570   27.5794 H   0  0  0  0  0  0  0  0  0  0  0  0
  -17.2145   23.0359   29.0639 H   0  0  0  0  0  0  0  0  0  0  0  0
  -15.9157   22.9164   27.9261 H   0  0  0  0  0  0  0  0  0  0  0  0
  -17.4861   20.6228   29.1944 H   0  0  0  0  0  0  0  0  0  0  0  0
  -15.6634   20.8753   29.1616 H   0  0  0  0  0  0  0  0  0  0  0  0
  1  2  1  0  0  0  0
  1 16  1  0  0  0  0
  2  3  2  0  0  0  0
  2 11  1  0  0  0  0
  1  4  1  0  0  0  0
  5  6  1  0  0  0  0
  5  7  1  0  0  0  0
  4  6  1  0  0  0  0
  6 17  1  0  0  0  0
  7 10  1  0  0  0  0
  5  8  1  0  0  0  0
  8 18  1  0  0  0  0
  8 19  1  0  0  0  0
  8  9  1  0  0  0  0
  9 20  1  0  0  0  0
  9 21  1  0  0  0  0
  9 22  1  0  0  0  0
  4 10  1  0  0  0  0
 10 23  1  0  0  0  0
 11 12  1  0  0  0  0
 11 15  1  0  0  0  0
 11 24  1  0  0  0  0
 12 13  1  0  0  0  0
 12 25  1  0  0  0  0
 12 26  1  0  0  0  0
 13 14  1  0  0  0  0
 13 27  1  0  0  0  0
 13 28  1  0  0  0  0
 14 15  1  0  0  0  0
 14 29  1  0  0  0  0
 14 30  1  0  0  0  0
 15 31  1  0  0  0  0
 15 32  1  0  0  0  0
M  END
>  <pdb_header>
CRYST1   99.108   99.110   99.104  90.00  90.00  90.00 P 1           1 


$$$$
