top5_centroid
  PyMOL2.3          3D                             0

 23 23  0  0  0  0  0  0  0  0999 V2000
  -14.5404   16.7735   26.7358 N   0  0  0  0  0  0  0  0  0  0  0  0
  -18.1578   17.5012   27.4275 C   0  0  0  0  0  0  0  0  0  0  0  0
  -15.4072   18.8050   27.2672 O   0  0  0  0  0  0  0  0  0  0  0  0
  -16.9629   16.8704   27.0931 C   0  0  0  0  0  0  0  0  0  0  0  0
  -16.9907   15.5237   27.0408 N   0  0  0  0  0  0  0  0  0  0  0  0
  -15.6324   17.5936   27.0156 C   0  0  0  0  0  0  0  0  0  0  0  0
  -19.2900   15.3890   27.2181 N   0  0  0  0  0  0  0  0  0  0  0  0
  -18.0878   14.8288   26.9994 C   0  0  0  0  0  0  0  0  0  0  0  0
  -17.9870   13.3817   26.7630 C   0  0  0  0  0  0  0  0  0  0  0  0
  -17.9476   12.6067   28.1151 C   0  0  0  0  0  0  0  0  0  0  0  0
  -19.0494   12.7213   25.8499 C   0  0  0  0  0  0  0  0  0  0  0  0
  -19.3505   16.7254   27.4779 C   0  0  0  0  0  0  0  0  0  0  0  0
  -18.2647   19.1645   27.7723 C   0  0  0  0  0  0  0  0  0  0  0  0
  -13.5671   17.0568   26.7395 H   0  0  0  0  0  0  0  0  0  0  0  0
  -14.7586   15.7991   26.5673 H   0  0  0  0  0  0  0  0  0  0  0  0
  -16.9987   13.1488   26.3565 H   0  0  0  0  0  0  0  0  0  0  0  0
  -17.2100   13.0827   28.7706 H   0  0  0  0  0  0  0  0  0  0  0  0
  -17.7393   11.5268   28.0920 H   0  0  0  0  0  0  0  0  0  0  0  0
  -18.8898   12.7073   28.6872 H   0  0  0  0  0  0  0  0  0  0  0  0
  -20.0532   12.5825   26.2724 H   0  0  0  0  0  0  0  0  0  0  0  0
  -18.6546   11.8693   25.2986 H   0  0  0  0  0  0  0  0  0  0  0  0
  -19.2229   13.4404   25.0313 H   0  0  0  0  0  0  0  0  0  0  0  0
  -20.3447   17.1058   27.7180 H   0  0  0  0  0  0  0  0  0  0  0  0
  1 14  1  0  0  0  0
  1 15  1  0  0  0  0
  2 12  1  0  0  0  0
  2 13  1  0  0  0  0
  3  6  1  0  0  0  0
  2  4  1  0  0  0  0
  4  5  1  0  0  0  0
  5  8  1  0  0  0  0
  1  6  1  0  0  0  0
  4  6  1  0  0  0  0
  7  8  1  0  0  0  0
  8  9  1  0  0  0  0
  9 10  1  0  0  0  0
  9 11  1  0  0  0  0
  9 16  1  0  0  0  0
 10 17  1  0  0  0  0
 10 18  1  0  0  0  0
 10 19  1  0  0  0  0
 11 20  1  0  0  0  0
 11 21  1  0  0  0  0
 11 22  1  0  0  0  0
  7 12  1  0  0  0  0
 12 23  1  0  0  0  0
M  END
>  <pdb_header>
CRYST1   99.248   99.250   99.244  90.00  90.00  90.00 P 1           1 


$$$$
