top1_centroid
  PyMOL2.3          3D                             0

 35 37  0  0  0  0  0  0  0  0999 V2000
  -19.1390   17.2017   27.6689 N   0  0  0  0  0  0  0  0  0  0  0  0
  -18.1291   21.2129   26.6829 C   0  0  0  0  0  0  0  0  0  0  0  0
  -21.1680   12.6977   26.7021 O   0  0  0  0  0  0  0  0  0  0  0  0
  -19.3604   20.9208   27.2369 C   0  0  0  0  0  0  0  0  0  0  0  0
  -19.7111   14.3716   26.9889 N   0  0  0  0  0  0  0  0  0  0  0  0
  -19.6966   19.5963   27.5416 C   0  0  0  0  0  0  0  0  0  0  0  0
  -18.8315   18.5585   27.2892 C   0  0  0  0  0  0  0  0  0  0  0  0
  -18.1017   16.1030   27.9465 C   0  0  0  0  0  0  0  0  0  0  0  0
  -18.3452   14.9516   26.9784 C   0  0  0  0  0  0  0  0  0  0  0  0
  -20.1089   13.2254   26.4105 C   0  0  0  0  0  0  0  0  0  0  0  0
  -19.1163   12.5208   25.5516 C   0  0  0  0  0  0  0  0  0  0  0  0
  -19.0259   13.0687   24.0806 C   0  0  0  0  0  0  0  0  0  0  0  0
  -19.5659   11.6224   24.4006 C   0  0  0  0  0  0  0  0  0  0  0  0
  -20.7261   15.2024   27.6385 C   0  0  0  0  0  0  0  0  0  0  0  0
  -20.5256   16.7401   27.8202 C   0  0  0  0  0  0  0  0  0  0  0  0
  -17.5726   18.9063   26.7009 C   0  0  0  0  0  0  0  0  0  0  0  0
  -17.2121   20.2277   26.3513 C   0  0  0  0  0  0  0  0  0  0  0  0
  -17.8659   22.5733   26.3508 F   0  0  0  0  0  0  0  0  0  0  0  0
  -19.9886   21.7684   27.4960 H   0  0  0  0  0  0  0  0  0  0  0  0
  -20.6320   19.4790   28.0806 H   0  0  0  0  0  0  0  0  0  0  0  0
  -17.0767   16.4610   27.8293 H   0  0  0  0  0  0  0  0  0  0  0  0
  -18.2158   15.7730   28.9920 H   0  0  0  0  0  0  0  0  0  0  0  0
  -17.8191   14.1143   27.4515 H   0  0  0  0  0  0  0  0  0  0  0  0
  -18.0058   15.2134   25.9713 H   0  0  0  0  0  0  0  0  0  0  0  0
  -18.1743   12.2250   25.9966 H   0  0  0  0  0  0  0  0  0  0  0  0
  -19.8107   13.7483   23.7589 H   0  0  0  0  0  0  0  0  0  0  0  0
  -18.0465   13.4124   23.7628 H   0  0  0  0  0  0  0  0  0  0  0  0
  -20.6055   11.3334   24.2963 H   0  0  0  0  0  0  0  0  0  0  0  0
  -18.8880   10.8536   24.0316 H   0  0  0  0  0  0  0  0  0  0  0  0
  -21.7122   15.1162   27.1711 H   0  0  0  0  0  0  0  0  0  0  0  0
  -20.7267   14.7902   28.6524 H   0  0  0  0  0  0  0  0  0  0  0  0
  -20.8702   17.1078   28.7971 H   0  0  0  0  0  0  0  0  0  0  0  0
  -21.1874   17.2748   27.1335 H   0  0  0  0  0  0  0  0  0  0  0  0
  -16.9088   18.1123   26.3925 H   0  0  0  0  0  0  0  0  0  0  0  0
  -16.2645   20.4742   25.8765 H   0  0  0  0  0  0  0  0  0  0  0  0
  1  8  1  0  0  0  0
  1 15  1  0  0  0  0
  2 17  1  0  0  0  0
  2 18  1  0  0  0  0
  2  4  1  0  0  0  0
  4 19  1  0  0  0  0
  5 10  1  0  0  0  0
  4  6  1  0  0  0  0
  6  7  1  0  0  0  0
  6 20  1  0  0  0  0
  1  7  1  0  0  0  0
  8  9  1  0  0  0  0
  8 21  1  0  0  0  0
  8 22  1  0  0  0  0
  5  9  1  0  0  0  0
  9 23  1  0  0  0  0
  9 24  1  0  0  0  0
  3 10  1  0  0  0  0
 10 11  1  0  0  0  0
 11 12  1  0  0  0  0
 11 13  1  0  0  0  0
 11 25  1  0  0  0  0
 12 13  1  0  0  0  0
 12 26  1  0  0  0  0
 12 27  1  0  0  0  0
 13 28  1  0  0  0  0
 13 29  1  0  0  0  0
  5 14  1  0  0  0  0
 14 30  1  0  0  0  0
 14 31  1  0  0  0  0
 14 15  1  0  0  0  0
 15 32  1  0  0  0  0
 15 33  1  0  0  0  0
  7 16  1  0  0  0  0
 16 34  1  0  0  0  0
 16 17  1  0  0  0  0
 17 35  1  0  0  0  0
M  END
>  <pdb_header>
CRYST1   99.192   99.194   99.188  90.00  90.00  90.00 P 1           1 


$$$$
