
     RDKit          3D

 16 16  0  0  0  0  0  0  0  0999 V2000
  -25.0405   12.8162   28.7592 Br  0  0  0  0  0  0  0  0  0  0  0  0
  -23.3016   12.4492   28.1867 C   0  0  0  0  0  0  0  0  0  0  0  0
  -22.2050   13.2253   28.3119 C   0  0  0  0  0  0  0  0  0  0  0  0
  -22.0615   14.1794   28.7470 H   0  0  0  0  0  0  0  0  0  0  0  0
  -21.1946   12.5252   27.7465 N   0  0  0  0  0  0  0  0  0  0  0  0
  -19.8053   12.9148   27.6070 C   0  0  0  0  0  0  0  0  0  0  0  0
  -19.7946   13.9903   27.3985 H   0  0  0  0  0  0  0  0  0  0  0  0
  -19.3204   12.7413   28.5741 H   0  0  0  0  0  0  0  0  0  0  0  0
  -19.1109   12.1464   26.4938 C   0  0  0  0  0  0  0  0  0  0  0  0
  -19.0826   11.0814   26.7408 H   0  0  0  0  0  0  0  0  0  0  0  0
  -18.0873   12.4990   26.3289 H   0  0  0  0  0  0  0  0  0  0  0  0
  -19.8445   12.2854   25.2808 O   0  0  0  0  0  0  0  0  0  0  0  0
  -20.7076   11.8563   25.4167 H   0  0  0  0  0  0  0  0  0  0  0  0
  -21.6156   11.3218   27.2693 N   0  0  0  0  0  0  0  0  0  0  0  0
  -22.8946   11.2877   27.5396 C   0  0  0  0  0  0  0  0  0  0  0  0
  -23.5226   10.4714   27.2910 H   0  0  0  0  0  0  0  0  0  0  0  0
  1  2  1  0
  2  3  2  0
  2 15  1  0
  3  4  1  0
  3  5  1  0
  5  6  1  0
  5 14  1  0
  6  7  1  0
  6  8  1  0
  6  9  1  0
  9 10  1  0
  9 11  1  0
  9 12  1  0
 12 13  1  0
 14 15  2  0
 15 16  1  0
M  END
$$$$
