top1_centroid
  PyMOL2.3          3D                             0

 20 20  0  0  0  0  0  0  0  0999 V2000
  -17.0669   18.7372   28.1159 N   0  0  0  0  0  0  0  0  0  0  0  0
  -16.5517   16.2434   28.1973 C   0  0  0  0  0  0  0  0  0  0  0  0
  -15.3394   18.0700   29.6186 O   0  0  0  0  0  0  0  0  0  0  0  0
  -16.7334   15.4530   29.3283 C   0  0  0  0  0  0  0  0  0  0  0  0
  -15.0613   18.1028   27.0795 O   0  0  0  0  0  0  0  0  0  0  0  0
  -17.2279   14.1878   29.1439 C   0  0  0  0  0  0  0  0  0  0  0  0
  -17.5043   13.6185   27.8469 C   0  0  0  0  0  0  0  0  0  0  0  0
  -17.1453   14.3662   26.7445 C   0  0  0  0  0  0  0  0  0  0  0  0
  -17.2124   13.6797   25.3362 C   0  0  0  0  0  0  0  0  0  0  0  0
  -16.8035   15.6600   26.9025 C   0  0  0  0  0  0  0  0  0  0  0  0
  -17.4205   13.3983   30.2073 F   0  0  0  0  0  0  0  0  0  0  0  0
  -15.7906   17.8188   28.2643 S   0  0  0  0  0  0  0  0  0  0  0  0
  -16.9872   19.3266   28.9405 H   0  0  0  0  0  0  0  0  0  0  0  0
  -16.6477   19.4212   27.4928 H   0  0  0  0  0  0  0  0  0  0  0  0
  -16.5025   15.8174   30.3284 H   0  0  0  0  0  0  0  0  0  0  0  0
  -17.7608   12.5693   27.8648 H   0  0  0  0  0  0  0  0  0  0  0  0
  -17.8814   14.2514   24.6806 H   0  0  0  0  0  0  0  0  0  0  0  0
  -17.5303   12.6436   25.1996 H   0  0  0  0  0  0  0  0  0  0  0  0
  -16.1707   13.7195   25.0137 H   0  0  0  0  0  0  0  0  0  0  0  0
  -16.6242   16.1702   25.9645 H   0  0  0  0  0  0  0  0  0  0  0  0
  1 13  1  0  0  0  0
  1 14  1  0  0  0  0
  2  4  1  0  0  0  0
  2 10  1  0  0  0  0
  3 12  1  0  0  0  0
  4  6  1  0  0  0  0
  4 15  1  0  0  0  0
  6  7  1  0  0  0  0
  6 11  1  0  0  0  0
  7  8  1  0  0  0  0
  7 16  1  0  0  0  0
  8  9  1  0  0  0  0
  9 17  1  0  0  0  0
  9 18  1  0  0  0  0
  9 19  1  0  0  0  0
  8 10  1  0  0  0  0
 10 20  1  0  0  0  0
  1 12  1  0  0  0  0
  2 12  1  0  0  0  0
  5 12  1  0  0  0  0
M  END
>  <pdb_header>
CRYST1   99.222   99.224   99.219  90.00  90.00  90.00 P 1           1 


$$$$
