top4_centroid
  PyMOL2.3          3D                             0

 19 19  0  0  0  0  0  0  0  0999 V2000
  -19.4003   14.6335   27.5778 N   0  0  0  0  0  0  0  0  0  0  0  0
  -20.1005   13.4307   27.5420 C   0  0  0  0  0  0  0  0  0  0  0  0
  -20.9865   13.2191   28.3988 O   0  0  0  0  0  0  0  0  0  0  0  0
  -19.6018   15.5491   28.7366 C   0  0  0  0  0  0  0  0  0  0  0  0
  -20.3041   10.7597   25.2414 N   0  0  0  0  0  0  0  0  0  0  0  0
  -18.5275   15.2365   26.5374 C   0  0  0  0  0  0  0  0  0  0  0  0
  -19.2338   11.3920   24.5807 N   0  0  0  0  0  0  0  0  0  0  0  0
  -19.9010   12.4411   26.5378 C   0  0  0  0  0  0  0  0  0  0  0  0
  -20.6391   11.3222   26.4057 C   0  0  0  0  0  0  0  0  0  0  0  0
  -18.9557   12.4778   25.3949 C   0  0  0  0  0  0  0  0  0  0  0  0
  -18.9425   15.3321   29.5924 H   0  0  0  0  0  0  0  0  0  0  0  0
  -20.6066   15.4632   29.1776 H   0  0  0  0  0  0  0  0  0  0  0  0
  -19.4661   16.5857   28.4135 H   0  0  0  0  0  0  0  0  0  0  0  0
  -17.4728   14.9415   26.6233 H   0  0  0  0  0  0  0  0  0  0  0  0
  -18.6123   16.3228   26.6380 H   0  0  0  0  0  0  0  0  0  0  0  0
  -18.9353   15.0342   25.5365 H   0  0  0  0  0  0  0  0  0  0  0  0
  -21.4659   10.8951   26.9485 H   0  0  0  0  0  0  0  0  0  0  0  0
  -20.7074    9.9463   24.8007 H   0  0  0  0  0  0  0  0  0  0  0  0
  -18.1250   13.1438   25.1781 H   0  0  0  0  0  0  0  0  0  0  0  0
  1  2  1  0  0  0  0
  1  6  1  0  0  0  0
  2  3  2  0  0  0  0
  2  8  1  0  0  0  0
  1  4  1  0  0  0  0
  4 11  1  0  0  0  0
  4 12  1  0  0  0  0
  4 13  1  0  0  0  0
  5  7  1  0  0  0  0
  5 18  1  0  0  0  0
  6 14  1  0  0  0  0
  6 15  1  0  0  0  0
  6 16  1  0  0  0  0
  7 10  1  0  0  0  0
  8  9  1  0  0  0  0
  8 10  1  0  0  0  0
  5  9  1  0  0  0  0
  9 17  1  0  0  0  0
 10 19  1  0  0  0  0
M  END
>  <pdb_header>
CRYST1   99.370   99.372   99.366  90.00  90.00  90.00 P 1           1 


$$$$
