top2_centroid
  PyMOL2.3          3D                             0

 24 25  0  0  0  0  0  0  0  0999 V2000
  -19.5220   18.5041   27.2991 N   0  0  0  0  0  0  0  0  0  0  0  0
  -19.6781   16.4212   28.7683 C   0  0  0  0  0  0  0  0  0  0  0  0
  -18.5501   15.0215   26.9599 O   0  0  0  0  0  0  0  0  0  0  0  0
  -20.2794   17.4940   27.9777 C   0  0  0  0  0  0  0  0  0  0  0  0
  -21.6463   17.6043   27.7606 N   0  0  0  0  0  0  0  0  0  0  0  0
  -20.7557   14.1143   28.0066 O   0  0  0  0  0  0  0  0  0  0  0  0
  -20.5402   19.0932   26.5458 C   0  0  0  0  0  0  0  0  0  0  0  0
  -21.7447   18.5577   26.7954 C   0  0  0  0  0  0  0  0  0  0  0  0
  -22.8752   19.0285   26.2102 C   0  0  0  0  0  0  0  0  0  0  0  0
  -22.8163   20.2034   25.4326 C   0  0  0  0  0  0  0  0  0  0  0  0
  -21.5279   20.7874   25.1337 C   0  0  0  0  0  0  0  0  0  0  0  0
  -20.3564   20.1508   25.6377 C   0  0  0  0  0  0  0  0  0  0  0  0
  -18.6187   14.0379   29.2743 C   0  0  0  0  0  0  0  0  0  0  0  0
  -19.4805   14.8638   28.0468 S   0  0  0  0  0  0  0  0  0  0  0  0
  -20.2706   16.1903   29.6679 H   0  0  0  0  0  0  0  0  0  0  0  0
  -18.6686   16.7089   29.0618 H   0  0  0  0  0  0  0  0  0  0  0  0
  -18.5265   18.6319   27.1906 H   0  0  0  0  0  0  0  0  0  0  0  0
  -23.8613   18.6216   26.3835 H   0  0  0  0  0  0  0  0  0  0  0  0
  -23.7353   20.5538   24.9707 H   0  0  0  0  0  0  0  0  0  0  0  0
  -21.4640   21.6002   24.4164 H   0  0  0  0  0  0  0  0  0  0  0  0
  -19.3931   20.5896   25.3940 H   0  0  0  0  0  0  0  0  0  0  0  0
  -19.1147   14.1636   30.2452 H   0  0  0  0  0  0  0  0  0  0  0  0
  -17.6474   14.5596   29.2612 H   0  0  0  0  0  0  0  0  0  0  0  0
  -18.5890   12.9639   29.0723 H   0  0  0  0  0  0  0  0  0  0  0  0
  1  7  1  0  0  0  0
  1 17  1  0  0  0  0
  2  4  1  0  0  0  0
  2 15  1  0  0  0  0
  2 16  1  0  0  0  0
  3 14  1  0  0  0  0
  1  4  1  0  0  0  0
  4  5  1  0  0  0  0
  5  8  1  0  0  0  0
  7  8  1  0  0  0  0
  7 12  1  0  0  0  0
  8  9  1  0  0  0  0
  9 10  1  0  0  0  0
  9 18  1  0  0  0  0
 10 11  1  0  0  0  0
 10 19  1  0  0  0  0
 11 12  1  0  0  0  0
 11 20  1  0  0  0  0
 12 21  1  0  0  0  0
 13 22  1  0  0  0  0
 13 23  1  0  0  0  0
 13 24  1  0  0  0  0
  2 14  1  0  0  0  0
  6 14  1  0  0  0  0
 13 14  1  0  0  0  0
M  END
>  <pdb_header>
CRYST1   99.297   99.299   99.293  90.00  90.00  90.00 P 1           1 


$$$$
