top4_centroid
  PyMOL2.3          3D                             0

 31 32  0  0  0  0  0  0  0  0999 V2000
  -21.0341   17.9809   28.3528 N   0  0  0  0  0  0  0  0  0  0  0  0
  -22.3196   18.5136   28.0047 C   0  0  0  0  0  0  0  0  0  0  0  0
  -23.3625   17.9771   28.3567 O   0  0  0  0  0  0  0  0  0  0  0  0
  -20.7803   16.8614   29.3387 C   0  0  0  0  0  0  0  0  0  0  0  0
  -19.5431   14.0567   27.4033 N   0  0  0  0  0  0  0  0  0  0  0  0
  -20.5155   15.6394   28.5341 C   0  0  0  0  0  0  0  0  0  0  0  0
  -20.8507   13.7039   27.5149 N   0  0  0  0  0  0  0  0  0  0  0  0
  -19.3294   15.3017   28.0159 C   0  0  0  0  0  0  0  0  0  0  0  0
  -22.9297   20.5014   24.9360 N   0  0  0  0  0  0  0  0  0  0  0  0
  -18.5478   13.2352   26.6573 C   0  0  0  0  0  0  0  0  0  0  0  0
  -17.3539   12.7230   27.5815 C   0  0  0  0  0  0  0  0  0  0  0  0
  -21.4474   14.6615   28.1564 C   0  0  0  0  0  0  0  0  0  0  0  0
  -22.2914   19.6277   27.0939 C   0  0  0  0  0  0  0  0  0  0  0  0
  -23.0653   19.5833   25.8656 C   0  0  0  0  0  0  0  0  0  0  0  0
  -21.9800   21.4649   25.0557 C   0  0  0  0  0  0  0  0  0  0  0  0
  -21.2460   21.6224   26.1903 C   0  0  0  0  0  0  0  0  0  0  0  0
  -21.3664   20.6666   27.2248 C   0  0  0  0  0  0  0  0  0  0  0  0
  -20.1958   18.4310   27.9995 H   0  0  0  0  0  0  0  0  0  0  0  0
  -21.7004   16.6979   29.9130 H   0  0  0  0  0  0  0  0  0  0  0  0
  -19.9430   17.0928   30.0096 H   0  0  0  0  0  0  0  0  0  0  0  0
  -18.3974   15.8450   27.9900 H   0  0  0  0  0  0  0  0  0  0  0  0
  -18.9634   12.3233   26.2069 H   0  0  0  0  0  0  0  0  0  0  0  0
  -18.1241   13.8796   25.8757 H   0  0  0  0  0  0  0  0  0  0  0  0
  -16.5101   12.2666   27.0578 H   0  0  0  0  0  0  0  0  0  0  0  0
  -17.6663   11.9848   28.3367 H   0  0  0  0  0  0  0  0  0  0  0  0
  -16.8805   13.5677   28.1016 H   0  0  0  0  0  0  0  0  0  0  0  0
  -22.5274   14.6690   28.1864 H   0  0  0  0  0  0  0  0  0  0  0  0
  -23.7316   18.7488   25.6985 H   0  0  0  0  0  0  0  0  0  0  0  0
  -21.8945   22.2104   24.2695 H   0  0  0  0  0  0  0  0  0  0  0  0
  -20.5734   22.4793   26.2055 H   0  0  0  0  0  0  0  0  0  0  0  0
  -20.7101   20.7855   28.0783 H   0  0  0  0  0  0  0  0  0  0  0  0
  1  2  1  0  0  0  0
  1 18  1  0  0  0  0
  2  3  2  0  0  0  0
  2 13  1  0  0  0  0
  1  4  1  0  0  0  0
  4 19  1  0  0  0  0
  4 20  1  0  0  0  0
  5  7  1  0  0  0  0
  5  8  1  0  0  0  0
  4  6  1  0  0  0  0
  7 12  1  0  0  0  0
  6  8  1  0  0  0  0
  8 21  1  0  0  0  0
  9 15  1  0  0  0  0
  5 10  1  0  0  0  0
 10 22  1  0  0  0  0
 10 23  1  0  0  0  0
 10 11  1  0  0  0  0
 11 24  1  0  0  0  0
 11 25  1  0  0  0  0
 11 26  1  0  0  0  0
  6 12  1  0  0  0  0
 12 27  1  0  0  0  0
 13 14  1  0  0  0  0
 13 17  1  0  0  0  0
  9 14  1  0  0  0  0
 14 28  1  0  0  0  0
 15 16  1  0  0  0  0
 15 29  1  0  0  0  0
 16 17  1  0  0  0  0
 16 30  1  0  0  0  0
 17 31  1  0  0  0  0
M  END
>  <pdb_header>
CRYST1   99.011   99.013   99.007  90.00  90.00  90.00 P 1           1 


$$$$
