top3_centroid
  PyMOL2.3          3D                             0

 18 18  0  0  0  0  0  0  0  0999 V2000
  -11.6993   19.5586   26.6470 N   0  0  0  0  0  0  0  0  0  0  0  0
  -12.7648   20.4019   26.7622 C   0  0  0  0  0  0  0  0  0  0  0  0
  -12.6768   21.6339   26.8562 O   0  0  0  0  0  0  0  0  0  0  0  0
  -10.3675   19.9859   26.9984 C   0  0  0  0  0  0  0  0  0  0  0  0
  -14.3460   18.5216   26.7436 N   0  0  0  0  0  0  0  0  0  0  0  0
   -9.6103   18.6839   27.5435 C   0  0  0  0  0  0  0  0  0  0  0  0
  -15.6128   18.2431   26.8287 N   0  0  0  0  0  0  0  0  0  0  0  0
  -14.1224   19.8290   26.8293 C   0  0  0  0  0  0  0  0  0  0  0  0
  -16.2360   19.4336   27.1028 N   0  0  0  0  0  0  0  0  0  0  0  0
  -15.3306   20.4770   26.9840 C   0  0  0  0  0  0  0  0  0  0  0  0
  -11.9546   18.5759   26.6767 H   0  0  0  0  0  0  0  0  0  0  0  0
   -9.8727   20.4418   26.1309 H   0  0  0  0  0  0  0  0  0  0  0  0
  -10.3113   20.8037   27.7260 H   0  0  0  0  0  0  0  0  0  0  0  0
   -9.3193   18.0545   26.6915 H   0  0  0  0  0  0  0  0  0  0  0  0
   -8.6488   18.9715   27.9946 H   0  0  0  0  0  0  0  0  0  0  0  0
  -10.2937   18.1818   28.2424 H   0  0  0  0  0  0  0  0  0  0  0  0
  -17.2290   19.4982   27.2456 H   0  0  0  0  0  0  0  0  0  0  0  0
  -15.6898   21.5024   27.0539 H   0  0  0  0  0  0  0  0  0  0  0  0
  1  2  1  0  0  0  0
  1 11  1  0  0  0  0
  2  3  2  0  0  0  0
  2  8  1  0  0  0  0
  1  4  1  0  0  0  0
  4 12  1  0  0  0  0
  4 13  1  0  0  0  0
  5  7  1  0  0  0  0
  4  6  1  0  0  0  0
  6 14  1  0  0  0  0
  6 15  1  0  0  0  0
  6 16  1  0  0  0  0
  7  9  1  0  0  0  0
  5  8  1  0  0  0  0
  8 10  1  0  0  0  0
  9 10  1  0  0  0  0
  9 17  1  0  0  0  0
 10 18  1  0  0  0  0
M  END
>  <pdb_header>
CRYST1   99.354   99.356   99.350  90.00  90.00  90.00 P 1           1 


$$$$
