
     RDKit          3D

 16 16  0  0  0  0  0  0  0  0999 V2000
  -21.3443   11.5043   27.0844 O   0  0  0  0  0  0  0  0  0  0  0  0
  -21.1160   12.9092   27.1942 C   0  0  0  0  0  0  0  0  0  0  0  0
  -21.9801   13.4546   26.7953 H   0  0  0  0  0  0  0  0  0  0  0  0
  -20.9774   13.1872   28.2452 H   0  0  0  0  0  0  0  0  0  0  0  0
  -19.8995   13.2334   26.3958 C   0  0  0  0  0  0  0  0  0  0  0  0
  -19.6314   12.5129   24.8650 S   0  0  0  0  0  0  0  0  0  0  0  0
  -18.1805   13.3995   24.8173 C   0  0  0  0  0  0  0  0  0  0  0  0
  -17.3621   13.3036   23.7560 N   0  0  0  0  0  0  0  0  0  0  0  0
  -17.5747   12.7147   22.9606 H   0  0  0  0  0  0  0  0  0  0  0  0
  -16.4979   13.8313   23.7282 H   0  0  0  0  0  0  0  0  0  0  0  0
  -17.9377   14.1431   25.8510 N   0  0  0  0  0  0  0  0  0  0  0  0
  -18.9550   14.0399   26.7767 N   0  0  0  0  0  0  0  0  0  0  0  0
  -22.5138   11.1079   27.7869 C   0  0  0  0  0  0  0  0  0  0  0  0
  -22.6372   10.0278   27.6684 H   0  0  0  0  0  0  0  0  0  0  0  0
  -23.3960   11.6073   27.3754 H   0  0  0  0  0  0  0  0  0  0  0  0
  -22.4150   11.3330   28.8531 H   0  0  0  0  0  0  0  0  0  0  0  0
  1  2  1  0
  1 13  1  0
  2  3  1  0
  2  4  1  0
  2  5  1  0
  5  6  1  0
  5 12  2  0
  6  7  1  0
  7  8  1  0
  7 11  2  0
  8  9  1  0
  8 10  1  0
 11 12  1  0
 13 14  1  0
 13 15  1  0
 13 16  1  0
M  END
$$$$
