top3_centroid
  PyMOL2.3          3D                             0

 24 26  0  0  0  0  0  0  0  0999 V2000
  -18.0270   18.9184   28.4462 N   0  0  0  0  0  0  0  0  0  0  0  0
  -15.5752   18.9900   28.7856 C   0  0  0  0  0  0  0  0  0  0  0  0
  -15.9814   16.5037   28.2237 O   0  0  0  0  0  0  0  0  0  0  0  0
  -16.8388   19.3216   28.0358 C   0  0  0  0  0  0  0  0  0  0  0  0
  -16.8463   20.3219   27.1594 N   0  0  0  0  0  0  0  0  0  0  0  0
  -13.8042   17.3622   29.0026 O   0  0  0  0  0  0  0  0  0  0  0  0
  -18.9165   19.7215   27.7650 C   0  0  0  0  0  0  0  0  0  0  0  0
  -18.1110   20.4892   26.9477 C   0  0  0  0  0  0  0  0  0  0  0  0
  -18.6913   21.3216   26.0261 C   0  0  0  0  0  0  0  0  0  0  0  0
  -20.1059   21.3597   25.9363 C   0  0  0  0  0  0  0  0  0  0  0  0
  -20.9949   20.5925   26.8027 C   0  0  0  0  0  0  0  0  0  0  0  0
  -20.3262   19.7748   27.7514 C   0  0  0  0  0  0  0  0  0  0  0  0
  -14.5727   17.6170   26.4929 C   0  0  0  0  0  0  0  0  0  0  0  0
  -14.9516   17.4780   28.1754 S   0  0  0  0  0  0  0  0  0  0  0  0
  -15.7150   18.8937   29.8731 H   0  0  0  0  0  0  0  0  0  0  0  0
  -14.7921   19.7555   28.6511 H   0  0  0  0  0  0  0  0  0  0  0  0
  -18.1945   18.5198   29.3578 H   0  0  0  0  0  0  0  0  0  0  0  0
  -18.1183   22.0587   25.4690 H   0  0  0  0  0  0  0  0  0  0  0  0
  -20.5384   21.9840   25.1619 H   0  0  0  0  0  0  0  0  0  0  0  0
  -22.0673   20.7276   26.8717 H   0  0  0  0  0  0  0  0  0  0  0  0
  -21.0041   19.3227   28.4698 H   0  0  0  0  0  0  0  0  0  0  0  0
  -13.8661   16.8702   26.1167 H   0  0  0  0  0  0  0  0  0  0  0  0
  -13.9407   18.5041   26.3323 H   0  0  0  0  0  0  0  0  0  0  0  0
  -15.5085   17.6121   25.9247 H   0  0  0  0  0  0  0  0  0  0  0  0
  1  7  1  0  0  0  0
  1 17  1  0  0  0  0
  2  4  1  0  0  0  0
  2 15  1  0  0  0  0
  2 16  1  0  0  0  0
  3 14  1  0  0  0  0
  1  4  1  0  0  0  0
  4  5  1  0  0  0  0
  4  8  1  0  0  0  0
  5  8  1  0  0  0  0
  7  8  1  0  0  0  0
  7 12  1  0  0  0  0
  8  9  1  0  0  0  0
  9 10  1  0  0  0  0
  9 18  1  0  0  0  0
 10 11  1  0  0  0  0
 10 19  1  0  0  0  0
 11 12  1  0  0  0  0
 11 20  1  0  0  0  0
 12 21  1  0  0  0  0
 13 22  1  0  0  0  0
 13 23  1  0  0  0  0
 13 24  1  0  0  0  0
  2 14  1  0  0  0  0
  6 14  1  0  0  0  0
 13 14  1  0  0  0  0
M  END
>  <pdb_header>
CRYST1   99.211   99.213   99.207  90.00  90.00  90.00 P 1           1 


$$$$
