
     RDKit          3D

 26 27  0  0  0  0  0  0  0  0999 V2000
  -24.0822   11.8623   29.4385 O   0  0  0  0  0  0  0  0  0  0  0  0
  -23.0602   12.1542   28.8043 C   0  0  0  0  0  0  0  0  0  0  0  0
  -23.1732   12.6399   27.4946 N   0  0  0  0  0  0  0  0  0  0  0  0
  -24.4833   12.8336   26.8785 C   0  0  0  0  0  0  0  0  0  0  0  0
  -24.3479   12.9302   25.7946 H   0  0  0  0  0  0  0  0  0  0  0  0
  -25.1090   11.9516   27.0534 H   0  0  0  0  0  0  0  0  0  0  0  0
  -25.1239   14.0494   27.4269 C   0  0  0  0  0  0  0  0  0  0  0  0
  -26.1993   14.5182   26.7899 O   0  0  0  0  0  0  0  0  0  0  0  0
  -26.6514   15.6224   27.3986 N   0  0  0  0  0  0  0  0  0  0  0  0
  -25.8761   15.8477   28.4025 C   0  0  0  0  0  0  0  0  0  0  0  0
  -26.0994   17.0005   29.2992 C   0  0  0  0  0  0  0  0  0  0  0  0
  -25.2438   17.1526   29.9656 H   0  0  0  0  0  0  0  0  0  0  0  0
  -26.9861   16.8357   29.9206 H   0  0  0  0  0  0  0  0  0  0  0  0
  -26.2452   17.9213   28.7251 H   0  0  0  0  0  0  0  0  0  0  0  0
  -24.8879   14.8755   28.4576 C   0  0  0  0  0  0  0  0  0  0  0  0
  -24.1029   14.7963   29.1642 H   0  0  0  0  0  0  0  0  0  0  0  0
  -22.0809   12.9680   26.7175 N   0  0  0  0  0  0  0  0  0  0  0  0
  -20.8817   12.8350   27.1922 C   0  0  0  0  0  0  0  0  0  0  0  0
  -19.7072   13.1959   26.3274 C   0  0  0  0  0  0  0  0  0  0  0  0
  -19.8129   14.2310   25.9871 H   0  0  0  0  0  0  0  0  0  0  0  0
  -19.6866   12.5352   25.4550 H   0  0  0  0  0  0  0  0  0  0  0  0
  -18.7634   13.0968   26.8691 H   0  0  0  0  0  0  0  0  0  0  0  0
  -20.6681   12.3536   28.5165 C   0  0  0  0  0  0  0  0  0  0  0  0
  -19.6762   12.2592   28.8770 H   0  0  0  0  0  0  0  0  0  0  0  0
  -21.7302   12.0225   29.3058 C   0  0  0  0  0  0  0  0  0  0  0  0
  -21.6052   11.6625   30.2928 H   0  0  0  0  0  0  0  0  0  0  0  0
  1  2  2  0
  2  3  1  0
  2 25  1  0
  3  4  1  0
  3 17  1  0
  4  5  1  0
  4  6  1  0
  4  7  1  0
  7  8  1  0
  7 15  2  0
  8  9  1  0
  9 10  2  0
 10 11  1  0
 10 15  1  0
 11 12  1  0
 11 13  1  0
 11 14  1  0
 15 16  1  0
 17 18  2  0
 18 19  1  0
 18 23  1  0
 19 20  1  0
 19 21  1  0
 19 22  1  0
 23 24  1  0
 23 25  2  0
 25 26  1  0
M  END
$$$$
