top5_centroid
  PyMOL2.3          3D                             0

 24 25  0  0  0  0  0  0  0  0999 V2000
  -20.2930   18.9057   28.2529 N   0  0  0  0  0  0  0  0  0  0  0  0
  -18.9891   21.0925   28.0707 C   0  0  0  0  0  0  0  0  0  0  0  0
  -20.4885   21.3806   30.0890 O   0  0  0  0  0  0  0  0  0  0  0  0
  -19.1319   19.6413   28.0450 C   0  0  0  0  0  0  0  0  0  0  0  0
  -18.1652   18.8698   27.5471 N   0  0  0  0  0  0  0  0  0  0  0  0
  -18.5315   22.9359   29.7868 O   0  0  0  0  0  0  0  0  0  0  0  0
  -19.8805   17.6025   28.0585 C   0  0  0  0  0  0  0  0  0  0  0  0
  -18.6592   17.5957   27.6200 C   0  0  0  0  0  0  0  0  0  0  0  0
  -17.9817   16.4339   27.2889 C   0  0  0  0  0  0  0  0  0  0  0  0
  -18.6158   15.2036   27.3407 C   0  0  0  0  0  0  0  0  0  0  0  0
  -19.9344   15.2029   27.7585 C   0  0  0  0  0  0  0  0  0  0  0  0
  -20.6298   16.4599   28.0462 C   0  0  0  0  0  0  0  0  0  0  0  0
  -18.0363   20.5636   30.5903 C   0  0  0  0  0  0  0  0  0  0  0  0
  -19.1298   21.6006   29.7775 S   0  0  0  0  0  0  0  0  0  0  0  0
  -19.8085   21.6629   27.6308 H   0  0  0  0  0  0  0  0  0  0  0  0
  -18.0958   21.5492   27.6306 H   0  0  0  0  0  0  0  0  0  0  0  0
  -21.2406   19.2426   28.3467 H   0  0  0  0  0  0  0  0  0  0  0  0
  -16.9694   16.4428   26.9016 H   0  0  0  0  0  0  0  0  0  0  0  0
  -18.1132   14.3237   26.9590 H   0  0  0  0  0  0  0  0  0  0  0  0
  -20.5125   14.3038   27.9316 H   0  0  0  0  0  0  0  0  0  0  0  0
  -21.6743   16.4795   28.3353 H   0  0  0  0  0  0  0  0  0  0  0  0
  -17.0360   20.9647   30.4372 H   0  0  0  0  0  0  0  0  0  0  0  0
  -18.1607   19.5244   30.2556 H   0  0  0  0  0  0  0  0  0  0  0  0
  -18.3093   20.6017   31.6560 H   0  0  0  0  0  0  0  0  0  0  0  0
  1  7  1  0  0  0  0
  1 17  1  0  0  0  0
  2  4  1  0  0  0  0
  2 15  1  0  0  0  0
  2 16  1  0  0  0  0
  3 14  1  0  0  0  0
  1  4  1  0  0  0  0
  4  5  1  0  0  0  0
  5  8  1  0  0  0  0
  7  8  1  0  0  0  0
  7 12  1  0  0  0  0
  8  9  1  0  0  0  0
  9 10  1  0  0  0  0
  9 18  1  0  0  0  0
 10 11  1  0  0  0  0
 10 19  1  0  0  0  0
 11 12  1  0  0  0  0
 11 20  1  0  0  0  0
 12 21  1  0  0  0  0
 13 22  1  0  0  0  0
 13 23  1  0  0  0  0
 13 24  1  0  0  0  0
  2 14  1  0  0  0  0
  6 14  1  0  0  0  0
 13 14  1  0  0  0  0
M  END
>  <pdb_header>
CRYST1   99.211   99.213   99.207  90.00  90.00  90.00 P 1           1 


$$$$
