top3_centroid
  PyMOL2.3          3D                             0

 17 18  0  0  0  0  0  0  0  0999 V2000
  -17.4558   16.0441   25.6676 N   0  0  0  0  0  0  0  0  0  0  0  0
  -18.7080   12.4699   25.7513 C   0  0  0  0  0  0  0  0  0  0  0  0
  -16.9897   18.0106   26.7937 O   0  0  0  0  0  0  0  0  0  0  0  0
  -18.0128   13.6004   25.2204 C   0  0  0  0  0  0  0  0  0  0  0  0
  -18.0252   14.7999   25.9373 C   0  0  0  0  0  0  0  0  0  0  0  0
  -17.5188   16.8719   26.7235 C   0  0  0  0  0  0  0  0  0  0  0  0
  -18.2268   16.2135   27.8755 C   0  0  0  0  0  0  0  0  0  0  0  0
  -18.4467   14.8077   27.2232 C   0  0  0  0  0  0  0  0  0  0  0  0
  -19.0621   13.7599   27.8510 C   0  0  0  0  0  0  0  0  0  0  0  0
  -19.1673   12.5876   27.0925 C   0  0  0  0  0  0  0  0  0  0  0  0
  -18.8277   10.8062   24.8290 B   0  0  0  0  0  0  0  0  0  0  0  0
  -17.6089   13.5691   24.2162 H   0  0  0  0  0  0  0  0  0  0  0  0
  -16.7970   16.1739   24.9020 H   0  0  0  0  0  0  0  0  0  0  0  0
  -17.4602   16.1962   28.6624 H   0  0  0  0  0  0  0  0  0  0  0  0
  -19.1621   16.7189   28.1681 H   0  0  0  0  0  0  0  0  0  0  0  0
  -19.5098   13.9069   28.8304 H   0  0  0  0  0  0  0  0  0  0  0  0
  -19.6868   11.7280   27.5075 H   0  0  0  0  0  0  0  0  0  0  0  0
  1  6  1  0  0  0  0
  1 13  1  0  0  0  0
  2  4  1  0  0  0  0
  2 10  1  0  0  0  0
  4  5  1  0  0  0  0
  4 12  1  0  0  0  0
  1  5  1  0  0  0  0
  5  8  1  0  0  0  0
  3  6  1  0  0  0  0
  6  7  1  0  0  0  0
  7  8  1  0  0  0  0
  7 14  1  0  0  0  0
  7 15  1  0  0  0  0
  8  9  1  0  0  0  0
  9 10  1  0  0  0  0
  9 16  1  0  0  0  0
 10 17  1  0  0  0  0
  2 11  1  0  0  0  0
M  END
>  <pdb_header>
CRYST1   99.366   99.368   99.362  90.00  90.00  90.00 P 1           1 


$$$$
