top2_centroid
  PyMOL2.3          3D                             0

 31 32  0  0  0  0  0  0  0  0999 V2000
  -22.6742   11.6185   28.3135 N   0  0  0  0  0  0  0  0  0  0  0  0
  -23.3738   12.2605   29.3224 C   0  0  0  0  0  0  0  0  0  0  0  0
  -24.0753   13.2172   29.0640 O   0  0  0  0  0  0  0  0  0  0  0  0
  -22.7428   12.0054   26.9287 C   0  0  0  0  0  0  0  0  0  0  0  0
  -19.2546   12.4043   26.0849 N   0  0  0  0  0  0  0  0  0  0  0  0
  -21.2949   11.9894   26.4690 C   0  0  0  0  0  0  0  0  0  0  0  0
  -19.5529   11.3641   25.2795 N   0  0  0  0  0  0  0  0  0  0  0  0
  -20.2764   12.6775   26.9992 C   0  0  0  0  0  0  0  0  0  0  0  0
  -24.1248   11.9143   33.0566 N   0  0  0  0  0  0  0  0  0  0  0  0
  -17.8556   12.9643   26.1661 C   0  0  0  0  0  0  0  0  0  0  0  0
  -17.7979   14.4833   25.9190 C   0  0  0  0  0  0  0  0  0  0  0  0
  -20.8564   11.1932   25.4290 C   0  0  0  0  0  0  0  0  0  0  0  0
  -23.2229   11.7957   30.7651 C   0  0  0  0  0  0  0  0  0  0  0  0
  -24.0024   12.4284   31.8170 C   0  0  0  0  0  0  0  0  0  0  0  0
  -23.3372   10.8998   33.3652 C   0  0  0  0  0  0  0  0  0  0  0  0
  -22.4965   10.2729   32.4288 C   0  0  0  0  0  0  0  0  0  0  0  0
  -22.3886   10.7208   31.0980 C   0  0  0  0  0  0  0  0  0  0  0  0
  -22.0299   10.9263   28.6822 H   0  0  0  0  0  0  0  0  0  0  0  0
  -23.1607   12.9891   26.6703 H   0  0  0  0  0  0  0  0  0  0  0  0
  -23.3376   11.2311   26.4132 H   0  0  0  0  0  0  0  0  0  0  0  0
  -20.1745   13.4237   27.7790 H   0  0  0  0  0  0  0  0  0  0  0  0
  -17.4258   12.8164   27.1634 H   0  0  0  0  0  0  0  0  0  0  0  0
  -17.1511   12.5035   25.4659 H   0  0  0  0  0  0  0  0  0  0  0  0
  -18.2933   14.6613   24.9596 H   0  0  0  0  0  0  0  0  0  0  0  0
  -16.7768   14.8562   25.7728 H   0  0  0  0  0  0  0  0  0  0  0  0
  -18.3157   15.0500   26.7080 H   0  0  0  0  0  0  0  0  0  0  0  0
  -21.3980   10.4071   24.9155 H   0  0  0  0  0  0  0  0  0  0  0  0
  -24.7107   13.2262   31.6083 H   0  0  0  0  0  0  0  0  0  0  0  0
  -23.3431   10.7396   34.4393 H   0  0  0  0  0  0  0  0  0  0  0  0
  -21.9022    9.4120   32.6890 H   0  0  0  0  0  0  0  0  0  0  0  0
  -21.7798   10.2005   30.3538 H   0  0  0  0  0  0  0  0  0  0  0  0
  1  2  1  0  0  0  0
  1 18  1  0  0  0  0
  2  3  2  0  0  0  0
  2 13  1  0  0  0  0
  1  4  1  0  0  0  0
  4 19  1  0  0  0  0
  4 20  1  0  0  0  0
  5  7  1  0  0  0  0
  5  8  1  0  0  0  0
  4  6  1  0  0  0  0
  7 12  1  0  0  0  0
  6  8  1  0  0  0  0
  8 21  1  0  0  0  0
  9 15  1  0  0  0  0
  5 10  1  0  0  0  0
 10 22  1  0  0  0  0
 10 23  1  0  0  0  0
 10 11  1  0  0  0  0
 11 24  1  0  0  0  0
 11 25  1  0  0  0  0
 11 26  1  0  0  0  0
  6 12  1  0  0  0  0
 12 27  1  0  0  0  0
 13 14  1  0  0  0  0
 13 17  1  0  0  0  0
  9 14  1  0  0  0  0
 14 28  1  0  0  0  0
 15 16  1  0  0  0  0
 15 29  1  0  0  0  0
 16 17  1  0  0  0  0
 16 30  1  0  0  0  0
 17 31  1  0  0  0  0
M  END
>  <pdb_header>
CRYST1   99.229   99.231   99.225  90.00  90.00  90.00 P 1           1 


$$$$
