top1_centroid
  PyMOL2.3          3D                             0

 23 24  0  0  0  0  0  0  0  0999 V2000
  -15.9599   20.6038   26.6873 N   0  0  0  0  0  0  0  0  0  0  0  0
  -16.1813   19.0633   26.7191 C   0  0  0  0  0  0  0  0  0  0  0  0
  -17.5198   18.5964   27.0711 C   0  0  0  0  0  0  0  0  0  0  0  0
  -17.8689   17.3281   27.4757 N   0  0  0  0  0  0  0  0  0  0  0  0
  -19.1958   17.3754   27.5549 C   0  0  0  0  0  0  0  0  0  0  0  0
  -19.7053   18.5474   27.3152 N   0  0  0  0  0  0  0  0  0  0  0  0
  -20.0870   16.2223   27.7818 C   0  0  0  0  0  0  0  0  0  0  0  0
  -18.5880   19.3525   26.9862 N   0  0  0  0  0  0  0  0  0  0  0  0
  -19.3961   15.0013   27.8573 C   0  0  0  0  0  0  0  0  0  0  0  0
  -17.9551   14.9345   27.7017 C   0  0  0  0  0  0  0  0  0  0  0  0
  -17.2092   16.1316   27.3952 C   0  0  0  0  0  0  0  0  0  0  0  0
  -14.4671   20.9735   26.4362 C   0  0  0  0  0  0  0  0  0  0  0  0
  -16.4429   21.0589   25.8907 H   0  0  0  0  0  0  0  0  0  0  0  0
  -16.3581   21.0471   27.5284 H   0  0  0  0  0  0  0  0  0  0  0  0
  -15.9609   18.7830   25.6848 H   0  0  0  0  0  0  0  0  0  0  0  0
  -15.4079   18.5435   27.2860 H   0  0  0  0  0  0  0  0  0  0  0  0
  -21.1557   16.3725   27.8245 H   0  0  0  0  0  0  0  0  0  0  0  0
  -19.9953   14.1120   28.0442 H   0  0  0  0  0  0  0  0  0  0  0  0
  -17.4097   13.9963   27.7250 H   0  0  0  0  0  0  0  0  0  0  0  0
  -16.1853   16.0866   27.0557 H   0  0  0  0  0  0  0  0  0  0  0  0
  -14.3443   21.9188   25.8943 H   0  0  0  0  0  0  0  0  0  0  0  0
  -14.0971   20.1626   25.8107 H   0  0  0  0  0  0  0  0  0  0  0  0
  -13.9391   20.9915   27.3867 H   0  0  0  0  0  0  0  0  0  0  0  0
  1  2  1  0  0  0  0
  1 13  1  0  0  0  0
  1 14  1  0  0  0  0
  2  3  1  0  0  0  0
  2 15  1  0  0  0  0
  2 16  1  0  0  0  0
  3  4  1  0  0  0  0
  3  8  1  0  0  0  0
  4  5  1  0  0  0  0
  4 11  1  0  0  0  0
  5  7  1  0  0  0  0
  5  6  1  0  0  0  0
  7  9  1  0  0  0  0
  7 17  1  0  0  0  0
  6  8  1  0  0  0  0
  9 10  1  0  0  0  0
  9 18  1  0  0  0  0
 10 11  1  0  0  0  0
 10 19  1  0  0  0  0
 11 20  1  0  0  0  0
  1 12  1  0  0  0  0
 12 21  1  0  0  0  0
 12 22  1  0  0  0  0
 12 23  1  0  0  0  0
M  END
>  <pdb_header>
CRYST1   99.178   99.180   99.174  90.00  90.00  90.00 P 1           1 


$$$$
