
     RDKit          3D

 14 14  0  0  0  0  0  0  0  0999 V2000
  -24.6325   12.5536   25.6347 O   0  0  0  0  0  0  0  0  0  0  0  0
  -24.9379   13.0662   26.7471 C   0  0  0  0  0  0  0  0  0  0  0  0
  -25.6990   14.0780   26.7829 O   0  0  0  0  0  0  0  0  0  0  0  0
  -24.4175   12.4930   27.9818 C   0  0  0  0  0  0  0  0  0  0  0  0
  -24.8184   12.7799   29.2762 C   0  0  0  0  0  0  0  0  0  0  0  0
  -25.8928   13.7612   29.6438 C   0  0  0  0  0  0  0  0  0  0  0  0
  -26.0247   13.8156   30.7293 H   0  0  0  0  0  0  0  0  0  0  0  0
  -26.8532   13.4632   29.2111 H   0  0  0  0  0  0  0  0  0  0  0  0
  -25.6333   14.7664   29.2950 H   0  0  0  0  0  0  0  0  0  0  0  0
  -24.1127   12.0497   30.2461 C   0  0  0  0  0  0  0  0  0  0  0  0
  -24.2856   12.1375   31.2873 H   0  0  0  0  0  0  0  0  0  0  0  0
  -23.1784   11.2114   29.7113 C   0  0  0  0  0  0  0  0  0  0  0  0
  -22.5231   10.5609   30.2301 H   0  0  0  0  0  0  0  0  0  0  0  0
  -23.1466   11.3027   27.9929 S   0  0  0  0  0  0  0  0  0  0  0  0
  1  2  1  0
  2  3  2  0
  2  4  1  0
  4  5  2  0
  4 14  1  0
  5  6  1  0
  5 10  1  0
  6  7  1  0
  6  8  1  0
  6  9  1  0
 10 11  1  0
 10 12  2  0
 12 13  1  0
 12 14  1  0
M  END
$$$$
