top4_centroid
  PyMOL2.3          3D                             0

 24 25  0  0  0  0  0  0  0  0999 V2000
  -17.9124   16.9080   28.1044 N   0  0  0  0  0  0  0  0  0  0  0  0
  -19.2722   19.0018   28.6825 C   0  0  0  0  0  0  0  0  0  0  0  0
  -20.5037   19.9887   26.5823 O   0  0  0  0  0  0  0  0  0  0  0  0
  -19.1339   17.6008   28.1090 C   0  0  0  0  0  0  0  0  0  0  0  0
  -20.0986   16.8515   27.6725 N   0  0  0  0  0  0  0  0  0  0  0  0
  -18.0176   20.0404   26.6539 O   0  0  0  0  0  0  0  0  0  0  0  0
  -18.1681   15.6826   27.6628 C   0  0  0  0  0  0  0  0  0  0  0  0
  -19.4408   15.6990   27.4007 C   0  0  0  0  0  0  0  0  0  0  0  0
  -20.0563   14.5587   26.8307 C   0  0  0  0  0  0  0  0  0  0  0  0
  -19.2337   13.3979   26.6215 C   0  0  0  0  0  0  0  0  0  0  0  0
  -17.8524   13.4980   26.6783 C   0  0  0  0  0  0  0  0  0  0  0  0
  -17.2698   14.6916   27.2098 C   0  0  0  0  0  0  0  0  0  0  0  0
  -19.3484   21.7884   28.1761 C   0  0  0  0  0  0  0  0  0  0  0  0
  -19.3016   20.1310   27.3687 S   0  0  0  0  0  0  0  0  0  0  0  0
  -18.3682   19.1845   29.2877 H   0  0  0  0  0  0  0  0  0  0  0  0
  -20.1897   19.0909   29.2862 H   0  0  0  0  0  0  0  0  0  0  0  0
  -16.9607   17.2206   28.2214 H   0  0  0  0  0  0  0  0  0  0  0  0
  -21.1192   14.5601   26.6354 H   0  0  0  0  0  0  0  0  0  0  0  0
  -19.7117   12.6027   26.0574 H   0  0  0  0  0  0  0  0  0  0  0  0
  -17.2445   12.7108   26.2283 H   0  0  0  0  0  0  0  0  0  0  0  0
  -16.1971   14.8184   27.1284 H   0  0  0  0  0  0  0  0  0  0  0  0
  -19.7169   22.5057   27.4330 H   0  0  0  0  0  0  0  0  0  0  0  0
  -18.3042   21.9771   28.4314 H   0  0  0  0  0  0  0  0  0  0  0  0
  -19.9697   21.5781   29.0588 H   0  0  0  0  0  0  0  0  0  0  0  0
  1  7  1  0  0  0  0
  1 17  1  0  0  0  0
  2  4  1  0  0  0  0
  2 15  1  0  0  0  0
  2 16  1  0  0  0  0
  3 14  1  0  0  0  0
  1  4  1  0  0  0  0
  4  5  1  0  0  0  0
  5  8  1  0  0  0  0
  7  8  1  0  0  0  0
  7 12  1  0  0  0  0
  8  9  1  0  0  0  0
  9 10  1  0  0  0  0
  9 18  1  0  0  0  0
 10 11  1  0  0  0  0
 10 19  1  0  0  0  0
 11 12  1  0  0  0  0
 11 20  1  0  0  0  0
 12 21  1  0  0  0  0
 13 22  1  0  0  0  0
 13 23  1  0  0  0  0
 13 24  1  0  0  0  0
  2 14  1  0  0  0  0
  6 14  1  0  0  0  0
 13 14  1  0  0  0  0
M  END
>  <pdb_header>
CRYST1   99.211   99.213   99.207  90.00  90.00  90.00 P 1           1 


$$$$
