top3_centroid
  PyMOL2.3          3D                             0

 23 24  0  0  0  0  0  0  0  0999 V2000
  -18.7847   15.6373   28.0013 N   0  0  0  0  0  0  0  0  0  0  0  0
  -18.4292   16.9474   27.8475 C   0  0  0  0  0  0  0  0  0  0  0  0
  -17.2573   17.3062   27.7282 O   0  0  0  0  0  0  0  0  0  0  0  0
  -20.0883   15.0489   27.7474 C   0  0  0  0  0  0  0  0  0  0  0  0
  -20.0583   20.0437   27.8628 N   0  0  0  0  0  0  0  0  0  0  0  0
  -19.8699   13.6145   27.5192 C   0  0  0  0  0  0  0  0  0  0  0  0
  -21.1880   19.3102   27.9418 N   0  0  0  0  0  0  0  0  0  0  0  0
  -18.5802   13.2211   28.2750 C   0  0  0  0  0  0  0  0  0  0  0  0
  -17.8375   14.4863   28.1691 C   0  0  0  0  0  0  0  0  0  0  0  0
  -19.3396   18.0181   27.8214 C   0  0  0  0  0  0  0  0  0  0  0  0
  -18.9456   19.3462   27.7914 C   0  0  0  0  0  0  0  0  0  0  0  0
  -20.7442   18.0504   28.0084 C   0  0  0  0  0  0  0  0  0  0  0  0
  -20.6893   15.1652   28.6562 H   0  0  0  0  0  0  0  0  0  0  0  0
  -20.5778   15.5191   26.8780 H   0  0  0  0  0  0  0  0  0  0  0  0
  -20.7367   12.9798   27.7648 H   0  0  0  0  0  0  0  0  0  0  0  0
  -19.7134   13.4457   26.4450 H   0  0  0  0  0  0  0  0  0  0  0  0
  -18.1399   12.3143   27.8516 H   0  0  0  0  0  0  0  0  0  0  0  0
  -18.8491   12.9879   29.3108 H   0  0  0  0  0  0  0  0  0  0  0  0
  -17.1336   14.4043   27.3280 H   0  0  0  0  0  0  0  0  0  0  0  0
  -17.1495   14.6508   29.0194 H   0  0  0  0  0  0  0  0  0  0  0  0
  -17.9514   19.7453   27.6693 H   0  0  0  0  0  0  0  0  0  0  0  0
  -20.0701   21.0625   27.8785 H   0  0  0  0  0  0  0  0  0  0  0  0
  -21.4787   17.2658   28.1532 H   0  0  0  0  0  0  0  0  0  0  0  0
  1  2  1  0  0  0  0
  2  3  2  0  0  0  0
  2 10  1  0  0  0  0
  1  4  1  0  0  0  0
  4 13  1  0  0  0  0
  4 14  1  0  0  0  0
  5  7  1  0  0  0  0
  5 22  1  0  0  0  0
  4  6  1  0  0  0  0
  6 15  1  0  0  0  0
  6 16  1  0  0  0  0
  7 12  1  0  0  0  0
  6  8  1  0  0  0  0
  8  9  1  0  0  0  0
  8 17  1  0  0  0  0
  8 18  1  0  0  0  0
  1  9  1  0  0  0  0
  9 19  1  0  0  0  0
  9 20  1  0  0  0  0
 10 11  1  0  0  0  0
 10 12  1  0  0  0  0
  5 11  1  0  0  0  0
 11 21  1  0  0  0  0
 12 23  1  0  0  0  0
M  END
>  <pdb_header>
CRYST1   99.268   99.270   99.264  90.00  90.00  90.00 P 1           1 


$$$$
