top4_centroid
  PyMOL2.3          3D                             0

 26 26  0  0  0  0  0  0  0  0999 V2000
  -17.3226   17.7610   27.5849 N   0  0  0  0  0  0  0  0  0  0  0  0
  -18.0351   16.5180   27.7937 C   0  0  0  0  0  0  0  0  0  0  0  0
  -15.3621   17.3464   28.8167 O   0  0  0  0  0  0  0  0  0  0  0  0
  -18.6946   16.0244   26.5229 C   0  0  0  0  0  0  0  0  0  0  0  0
  -17.4134   18.4784   29.9043 O   0  0  0  0  0  0  0  0  0  0  0  0
  -19.0388   14.5189   26.4428 C   0  0  0  0  0  0  0  0  0  0  0  0
  -19.9075   13.8915   27.4167 C   0  0  0  0  0  0  0  0  0  0  0  0
  -20.2696   12.5435   27.1900 C   0  0  0  0  0  0  0  0  0  0  0  0
  -19.5399   11.7405   26.3421 C   0  0  0  0  0  0  0  0  0  0  0  0
  -18.7656   12.3610   25.3409 C   0  0  0  0  0  0  0  0  0  0  0  0
  -18.5107   13.7298   25.3676 C   0  0  0  0  0  0  0  0  0  0  0  0
  -15.8838   19.8917   28.4504 C   0  0  0  0  0  0  0  0  0  0  0  0
  -19.8453   10.4784   26.2286 F   0  0  0  0  0  0  0  0  0  0  0  0
  -16.4850   18.2568   28.8584 S   0  0  0  0  0  0  0  0  0  0  0  0
  -16.5065   17.4768   27.0514 H   0  0  0  0  0  0  0  0  0  0  0  0
  -17.2622   15.8041   28.1303 H   0  0  0  0  0  0  0  0  0  0  0  0
  -18.8000   16.5751   28.5791 H   0  0  0  0  0  0  0  0  0  0  0  0
  -19.6088   16.6283   26.4436 H   0  0  0  0  0  0  0  0  0  0  0  0
  -18.1000   16.2848   25.6343 H   0  0  0  0  0  0  0  0  0  0  0  0
  -20.4667   14.4126   28.1821 H   0  0  0  0  0  0  0  0  0  0  0  0
  -20.9498   12.0455   27.8724 H   0  0  0  0  0  0  0  0  0  0  0  0
  -18.2284   11.7138   24.6497 H   0  0  0  0  0  0  0  0  0  0  0  0
  -17.7018   14.0528   24.7178 H   0  0  0  0  0  0  0  0  0  0  0  0
  -16.7102   20.6165   28.4134 H   0  0  0  0  0  0  0  0  0  0  0  0
  -15.3927   19.7778   27.4767 H   0  0  0  0  0  0  0  0  0  0  0  0
  -15.1031   20.1208   29.1802 H   0  0  0  0  0  0  0  0  0  0  0  0
  1  2  1  0  0  0  0
  1 15  1  0  0  0  0
  2  4  1  0  0  0  0
  2 16  1  0  0  0  0
  2 17  1  0  0  0  0
  3 14  1  0  0  0  0
  4  6  1  0  0  0  0
  4 18  1  0  0  0  0
  4 19  1  0  0  0  0
  6  7  1  0  0  0  0
  6 11  1  0  0  0  0
  7  8  1  0  0  0  0
  7 20  1  0  0  0  0
  8  9  1  0  0  0  0
  8 21  1  0  0  0  0
  9 10  1  0  0  0  0
  9 13  1  0  0  0  0
 10 11  1  0  0  0  0
 10 22  1  0  0  0  0
 11 23  1  0  0  0  0
 12 24  1  0  0  0  0
 12 25  1  0  0  0  0
 12 26  1  0  0  0  0
  1 14  1  0  0  0  0
  5 14  1  0  0  0  0
 12 14  1  0  0  0  0
M  END
>  <pdb_header>
CRYST1   99.207   99.209   99.203  90.00  90.00  90.00 P 1           1 


$$$$
