top5_centroid
  PyMOL2.3          3D                             0

 24 24  0  0  0  0  0  0  0  0999 V2000
  -19.3689   17.9867   26.9773 N   0  0  0  0  0  0  0  0  0  0  0  0
  -18.5068   16.8526   27.1766 C   0  0  0  0  0  0  0  0  0  0  0  0
  -17.3047   16.7605   27.1901 O   0  0  0  0  0  0  0  0  0  0  0  0
  -18.6074   14.4322   27.4794 C   0  0  0  0  0  0  0  0  0  0  0  0
  -19.3111   15.6890   27.2378 O   0  0  0  0  0  0  0  0  0  0  0  0
  -17.8823   13.7050   26.2958 C   0  0  0  0  0  0  0  0  0  0  0  0
  -21.0319   20.2122   26.9873 O   0  0  0  0  0  0  0  0  0  0  0  0
  -18.7656   19.2908   26.6203 C   0  0  0  0  0  0  0  0  0  0  0  0
  -19.6232   20.4443   27.1212 C   0  0  0  0  0  0  0  0  0  0  0  0
  -21.4340   19.1226   27.7530 C   0  0  0  0  0  0  0  0  0  0  0  0
  -20.8339   17.8711   27.1198 C   0  0  0  0  0  0  0  0  0  0  0  0
  -17.7599   14.6431   28.1394 H   0  0  0  0  0  0  0  0  0  0  0  0
  -19.2576   13.7057   27.9823 H   0  0  0  0  0  0  0  0  0  0  0  0
  -18.6562   13.1925   25.7137 H   0  0  0  0  0  0  0  0  0  0  0  0
  -17.2036   12.9892   26.7897 H   0  0  0  0  0  0  0  0  0  0  0  0
  -17.2172   14.3248   25.6747 H   0  0  0  0  0  0  0  0  0  0  0  0
  -17.7308   19.3397   26.9860 H   0  0  0  0  0  0  0  0  0  0  0  0
  -18.6517   19.4610   25.5468 H   0  0  0  0  0  0  0  0  0  0  0  0
  -19.3104   21.4064   26.7036 H   0  0  0  0  0  0  0  0  0  0  0  0
  -19.3760   20.5041   28.1871 H   0  0  0  0  0  0  0  0  0  0  0  0
  -21.0947   19.2481   28.7937 H   0  0  0  0  0  0  0  0  0  0  0  0
  -22.5276   19.0957   27.8965 H   0  0  0  0  0  0  0  0  0  0  0  0
  -21.3004   17.5801   26.1773 H   0  0  0  0  0  0  0  0  0  0  0  0
  -21.0616   17.0181   27.7721 H   0  0  0  0  0  0  0  0  0  0  0  0
  1  8  1  0  0  0  0
  1 11  1  0  0  0  0
  1  2  1  0  0  0  0
  2  3  2  0  0  0  0
  4  5  1  0  0  0  0
  4 12  1  0  0  0  0
  4 13  1  0  0  0  0
  2  5  1  0  0  0  0
  4  6  1  0  0  0  0
  6 14  1  0  0  0  0
  6 15  1  0  0  0  0
  6 16  1  0  0  0  0
  7 10  1  0  0  0  0
  8  9  1  0  0  0  0
  8 17  1  0  0  0  0
  8 18  1  0  0  0  0
  7  9  1  0  0  0  0
  9 19  1  0  0  0  0
  9 20  1  0  0  0  0
 10 11  1  0  0  0  0
 10 21  1  0  0  0  0
 10 22  1  0  0  0  0
 11 23  1  0  0  0  0
 11 24  1  0  0  0  0
M  END
>  <pdb_header>
CRYST1   99.399   99.401   99.395  90.00  90.00  90.00 P 1           1 


$$$$
