top4_centroid
  PyMOL2.3          3D                             0

 30 31  0  0  0  0  0  0  0  0999 V2000
  -19.0149   14.9252   26.5007 N   0  0  0  0  0  0  0  0  0  0  0  0
  -17.8459   15.0702   27.3771 C   0  0  0  0  0  0  0  0  0  0  0  0
  -17.4087   16.5388   27.6211 C   0  0  0  0  0  0  0  0  0  0  0  0
  -20.7193   15.6401   27.9747 N   0  0  0  0  0  0  0  0  0  0  0  0
  -19.0006   13.9047   25.5029 C   0  0  0  0  0  0  0  0  0  0  0  0
  -20.2680   14.9325   29.0560 N   0  0  0  0  0  0  0  0  0  0  0  0
  -18.0294   14.3470   24.3351 C   0  0  0  0  0  0  0  0  0  0  0  0
  -22.3412   15.8496   29.4025 N   0  0  0  0  0  0  0  0  0  0  0  0
  -20.1922   15.6476   26.6746 C   0  0  0  0  0  0  0  0  0  0  0  0
  -22.7618   16.7952   27.2748 N   0  0  0  0  0  0  0  0  0  0  0  0
  -21.2590   15.1959   29.9677 C   0  0  0  0  0  0  0  0  0  0  0  0
  -21.9136   16.1320   28.1645 C   0  0  0  0  0  0  0  0  0  0  0  0
  -22.1929   16.8613   26.0628 C   0  0  0  0  0  0  0  0  0  0  0  0
  -23.0359   17.3843   24.9469 C   0  0  0  0  0  0  0  0  0  0  0  0
  -20.9093   16.3384   25.7385 C   0  0  0  0  0  0  0  0  0  0  0  0
  -17.9035   14.6408   28.3817 H   0  0  0  0  0  0  0  0  0  0  0  0
  -16.9890   14.4604   27.0670 H   0  0  0  0  0  0  0  0  0  0  0  0
  -16.9433   16.9066   26.7013 H   0  0  0  0  0  0  0  0  0  0  0  0
  -16.6233   16.5330   28.3842 H   0  0  0  0  0  0  0  0  0  0  0  0
  -18.2292   17.1764   27.9562 H   0  0  0  0  0  0  0  0  0  0  0  0
  -18.6549   12.9777   25.9934 H   0  0  0  0  0  0  0  0  0  0  0  0
  -20.0108   13.6616   25.1528 H   0  0  0  0  0  0  0  0  0  0  0  0
  -16.9924   14.4436   24.6889 H   0  0  0  0  0  0  0  0  0  0  0  0
  -18.2590   15.3534   23.9452 H   0  0  0  0  0  0  0  0  0  0  0  0
  -18.0769   13.6482   23.4790 H   0  0  0  0  0  0  0  0  0  0  0  0
  -21.2349   14.9433   31.0183 H   0  0  0  0  0  0  0  0  0  0  0  0
  -22.7668   16.9195   23.9911 H   0  0  0  0  0  0  0  0  0  0  0  0
  -23.0409   18.4814   24.8527 H   0  0  0  0  0  0  0  0  0  0  0  0
  -24.0928   17.1237   25.0757 H   0  0  0  0  0  0  0  0  0  0  0  0
  -20.5376   16.3161   24.7220 H   0  0  0  0  0  0  0  0  0  0  0  0
  1  5  1  0  0  0  0
  1  9  1  0  0  0  0
  1  2  1  0  0  0  0
  2 16  1  0  0  0  0
  2 17  1  0  0  0  0
  2  3  1  0  0  0  0
  3 18  1  0  0  0  0
  3 19  1  0  0  0  0
  3 20  1  0  0  0  0
  4  6  1  0  0  0  0
  4 12  1  0  0  0  0
  5  7  1  0  0  0  0
  5 21  1  0  0  0  0
  5 22  1  0  0  0  0
  6 11  1  0  0  0  0
  7 23  1  0  0  0  0
  7 24  1  0  0  0  0
  7 25  1  0  0  0  0
  8 12  1  0  0  0  0
  4  9  1  0  0  0  0
  9 15  1  0  0  0  0
 10 13  1  0  0  0  0
  8 11  1  0  0  0  0
 11 26  1  0  0  0  0
 10 12  1  0  0  0  0
 13 14  1  0  0  0  0
 14 27  1  0  0  0  0
 14 28  1  0  0  0  0
 14 29  1  0  0  0  0
 13 15  1  0  0  0  0
 15 30  1  0  0  0  0
M  END
>  <pdb_header>
CRYST1   99.269   99.271   99.265  90.00  90.00  90.00 P 1           1 


$$$$
