top3_centroid
  PyMOL2.3          3D                             0

 32 33  0  0  0  0  0  0  0  0999 V2000
  -19.4102   12.5629   32.7136 N   0  0  0  0  0  0  0  0  0  0  0  0
  -20.1885   11.5448   33.1614 C   0  0  0  0  0  0  0  0  0  0  0  0
  -20.8571   10.8421   32.5504 O   0  0  0  0  0  0  0  0  0  0  0  0
  -20.1492   10.1389   35.0737 C   0  0  0  0  0  0  0  0  0  0  0  0
  -18.3521   11.4208   24.6316 N   0  0  0  0  0  0  0  0  0  0  0  0
  -19.9984   11.4370   34.5105 O   0  0  0  0  0  0  0  0  0  0  0  0
  -19.4365   13.0083   31.3304 C   0  0  0  0  0  0  0  0  0  0  0  0
  -20.5635   13.6806   30.9339 C   0  0  0  0  0  0  0  0  0  0  0  0
  -20.6755   14.1808   29.5695 C   0  0  0  0  0  0  0  0  0  0  0  0
  -19.5406   13.9627   28.7332 C   0  0  0  0  0  0  0  0  0  0  0  0
  -19.6403   14.5455   27.3394 C   0  0  0  0  0  0  0  0  0  0  0  0
  -19.2432   13.5691   26.2458 C   0  0  0  0  0  0  0  0  0  0  0  0
  -17.9319   13.6138   25.7696 C   0  0  0  0  0  0  0  0  0  0  0  0
  -17.5292   12.4967   25.0266 C   0  0  0  0  0  0  0  0  0  0  0  0
  -19.6555   11.5723   24.8933 C   0  0  0  0  0  0  0  0  0  0  0  0
  -20.0880   12.5247   25.8041 C   0  0  0  0  0  0  0  0  0  0  0  0
  -18.2489   13.5574   29.2410 C   0  0  0  0  0  0  0  0  0  0  0  0
  -18.2514   13.0348   30.5249 C   0  0  0  0  0  0  0  0  0  0  0  0
  -19.7540    9.3776   34.3898 H   0  0  0  0  0  0  0  0  0  0  0  0
  -21.2302    9.9405   35.1547 H   0  0  0  0  0  0  0  0  0  0  0  0
  -19.6477   10.0506   36.0537 H   0  0  0  0  0  0  0  0  0  0  0  0
  -18.7642   12.9602   33.3866 H   0  0  0  0  0  0  0  0  0  0  0  0
  -21.4554   13.8428   31.5352 H   0  0  0  0  0  0  0  0  0  0  0  0
  -21.6365   14.6096   29.2916 H   0  0  0  0  0  0  0  0  0  0  0  0
  -18.9325   15.3670   27.1968 H   0  0  0  0  0  0  0  0  0  0  0  0
  -20.6333   15.0220   27.2607 H   0  0  0  0  0  0  0  0  0  0  0  0
  -17.2467   14.3879   26.1087 H   0  0  0  0  0  0  0  0  0  0  0  0
  -16.5214   12.4744   24.6049 H   0  0  0  0  0  0  0  0  0  0  0  0
  -20.3407   10.7982   24.5542 H   0  0  0  0  0  0  0  0  0  0  0  0
  -21.0876   12.4443   26.2441 H   0  0  0  0  0  0  0  0  0  0  0  0
  -17.3805   13.5368   28.5868 H   0  0  0  0  0  0  0  0  0  0  0  0
  -17.3982   12.6324   31.0535 H   0  0  0  0  0  0  0  0  0  0  0  0
  1  7  1  0  0  0  0
  1 22  1  0  0  0  0
  1  2  1  0  0  0  0
  2  3  2  0  0  0  0
  4  6  1  0  0  0  0
  4 19  1  0  0  0  0
  4 20  1  0  0  0  0
  4 21  1  0  0  0  0
  5 15  1  0  0  0  0
  2  6  1  0  0  0  0
  7  8  1  0  0  0  0
  7 18  1  0  0  0  0
  8  9  1  0  0  0  0
  8 23  1  0  0  0  0
  9 10  1  0  0  0  0
  9 24  1  0  0  0  0
 10 11  1  0  0  0  0
 11 12  1  0  0  0  0
 11 25  1  0  0  0  0
 11 26  1  0  0  0  0
 12 13  1  0  0  0  0
 12 16  1  0  0  0  0
 13 14  1  0  0  0  0
 13 27  1  0  0  0  0
  5 14  1  0  0  0  0
 14 28  1  0  0  0  0
 15 16  1  0  0  0  0
 15 29  1  0  0  0  0
 16 30  1  0  0  0  0
 10 17  1  0  0  0  0
 17 31  1  0  0  0  0
 17 18  1  0  0  0  0
 18 32  1  0  0  0  0
M  END
>  <pdb_header>
CRYST1   99.104   99.106   99.100  90.00  90.00  90.00 P 1           1 


$$$$
