top2_centroid
  PyMOL2.3          3D                             0

 18 18  0  0  0  0  0  0  0  0999 V2000
  -23.2383   11.0173   24.6396 N   0  0  0  0  0  0  0  0  0  0  0  0
  -21.7260   13.2026   26.9104 C   0  0  0  0  0  0  0  0  0  0  0  0
  -22.2201   13.8375   27.8410 O   0  0  0  0  0  0  0  0  0  0  0  0
  -19.5001   13.8406   27.4256 C   0  0  0  0  0  0  0  0  0  0  0  0
  -24.3249   11.3906   25.3959 N   0  0  0  0  0  0  0  0  0  0  0  0
  -20.4461   13.3239   26.5759 O   0  0  0  0  0  0  0  0  0  0  0  0
  -18.0669   13.6524   26.7890 C   0  0  0  0  0  0  0  0  0  0  0  0
  -22.5222   12.3617   26.1291 C   0  0  0  0  0  0  0  0  0  0  0  0
  -22.0729   11.6598   25.0062 C   0  0  0  0  0  0  0  0  0  0  0  0
  -23.8464   12.0276   26.3499 C   0  0  0  0  0  0  0  0  0  0  0  0
  -19.4891   13.2496   28.3482 H   0  0  0  0  0  0  0  0  0  0  0  0
  -19.7219   14.8664   27.7501 H   0  0  0  0  0  0  0  0  0  0  0  0
  -17.9133   14.2818   25.9109 H   0  0  0  0  0  0  0  0  0  0  0  0
  -17.9854   12.6044   26.4664 H   0  0  0  0  0  0  0  0  0  0  0  0
  -17.3284   13.8883   27.5628 H   0  0  0  0  0  0  0  0  0  0  0  0
  -21.1194   11.5897   24.5023 H   0  0  0  0  0  0  0  0  0  0  0  0
  -23.2608   10.4740   23.7921 H   0  0  0  0  0  0  0  0  0  0  0  0
  -24.5219   12.4239   27.0843 H   0  0  0  0  0  0  0  0  0  0  0  0
  1  5  1  0  0  0  0
  1 17  1  0  0  0  0
  2  3  2  0  0  0  0
  2  8  1  0  0  0  0
  4  6  1  0  0  0  0
  4 11  1  0  0  0  0
  4 12  1  0  0  0  0
  5 10  1  0  0  0  0
  2  6  1  0  0  0  0
  4  7  1  0  0  0  0
  7 13  1  0  0  0  0
  7 14  1  0  0  0  0
  7 15  1  0  0  0  0
  8  9  1  0  0  0  0
  8 10  1  0  0  0  0
  1  9  1  0  0  0  0
  9 16  1  0  0  0  0
 10 18  1  0  0  0  0
M  END
>  <pdb_header>
CRYST1   99.445   99.447   99.441  90.00  90.00  90.00 P 1           1 


$$$$
