
     RDKit          3D

 16 16  0  0  0  0  0  0  0  0999 V2000
  -17.7819   13.6084   27.6956 O   0  0  0  0  0  0  0  0  0  0  0  0
  -18.1123   14.6389   26.7645 C   0  0  0  0  0  0  0  0  0  0  0  0
  -17.9203   14.2874   25.7433 H   0  0  0  0  0  0  0  0  0  0  0  0
  -19.1725   14.9017   26.8542 H   0  0  0  0  0  0  0  0  0  0  0  0
  -17.2479   15.8153   27.0664 C   0  0  0  0  0  0  0  0  0  0  0  0
  -17.6360   17.3721   26.4664 S   0  0  0  0  0  0  0  0  0  0  0  0
  -16.2216   17.9105   27.2429 C   0  0  0  0  0  0  0  0  0  0  0  0
  -15.8647   19.2045   27.1806 N   0  0  0  0  0  0  0  0  0  0  0  0
  -16.4137   19.8934   26.6820 H   0  0  0  0  0  0  0  0  0  0  0  0
  -15.0221   19.5245   27.6427 H   0  0  0  0  0  0  0  0  0  0  0  0
  -15.5413   17.0038   27.8717 N   0  0  0  0  0  0  0  0  0  0  0  0
  -16.1523   15.7719   27.7632 N   0  0  0  0  0  0  0  0  0  0  0  0
  -18.5632   12.4411   27.4829 C   0  0  0  0  0  0  0  0  0  0  0  0
  -18.2685   11.6902   28.2213 H   0  0  0  0  0  0  0  0  0  0  0  0
  -18.3834   12.0364   26.4825 H   0  0  0  0  0  0  0  0  0  0  0  0
  -19.6266   12.6624   27.6156 H   0  0  0  0  0  0  0  0  0  0  0  0
  1  2  1  0
  1 13  1  0
  2  3  1  0
  2  4  1  0
  2  5  1  0
  5  6  1  0
  5 12  2  0
  6  7  1  0
  7  8  1  0
  7 11  2  0
  8  9  1  0
  8 10  1  0
 11 12  1  0
 13 14  1  0
 13 15  1  0
 13 16  1  0
M  END
$$$$
