top5_centroid
  PyMOL2.3          3D                             0

 23 23  0  0  0  0  0  0  0  0999 V2000
  -20.0027   17.3686   26.7434 N   0  0  0  0  0  0  0  0  0  0  0  0
  -23.1509   17.2503   28.9559 C   0  0  0  0  0  0  0  0  0  0  0  0
  -22.5613   17.7826   26.4303 O   0  0  0  0  0  0  0  0  0  0  0  0
  -21.4401   15.6537   27.5611 C   0  0  0  0  0  0  0  0  0  0  0  0
  -23.9176   15.8529   27.0682 O   0  0  0  0  0  0  0  0  0  0  0  0
  -20.1426   16.0690   27.2412 C   0  0  0  0  0  0  0  0  0  0  0  0
  -18.7852   18.1773   26.7452 C   0  0  0  0  0  0  0  0  0  0  0  0
  -19.0142   15.2514   27.4545 C   0  0  0  0  0  0  0  0  0  0  0  0
  -19.2082   14.0397   28.1339 C   0  0  0  0  0  0  0  0  0  0  0  0
  -20.5396   13.5938   28.4244 C   0  0  0  0  0  0  0  0  0  0  0  0
  -21.6591   14.3265   28.0741 C   0  0  0  0  0  0  0  0  0  0  0  0
  -22.8141   16.7112   27.3579 S   0  0  0  0  0  0  0  0  0  0  0  0
  -23.7944   16.5438   29.4852 H   0  0  0  0  0  0  0  0  0  0  0  0
  -23.5668   18.2604   28.9282 H   0  0  0  0  0  0  0  0  0  0  0  0
  -22.1318   17.3297   29.3530 H   0  0  0  0  0  0  0  0  0  0  0  0
  -20.8398   17.8280   26.4108 H   0  0  0  0  0  0  0  0  0  0  0  0
  -17.9326   17.6200   26.3448 H   0  0  0  0  0  0  0  0  0  0  0  0
  -18.3507   18.5508   27.6744 H   0  0  0  0  0  0  0  0  0  0  0  0
  -19.0810   19.1212   26.2704 H   0  0  0  0  0  0  0  0  0  0  0  0
  -18.0090   15.6523   27.4840 H   0  0  0  0  0  0  0  0  0  0  0  0
  -18.3002   13.5891   28.5520 H   0  0  0  0  0  0  0  0  0  0  0  0
  -20.6820   12.7034   29.0284 H   0  0  0  0  0  0  0  0  0  0  0  0
  -22.6681   14.0019   28.3145 H   0  0  0  0  0  0  0  0  0  0  0  0
  1  7  1  0  0  0  0
  1 16  1  0  0  0  0
  2 13  1  0  0  0  0
  2 14  1  0  0  0  0
  2 15  1  0  0  0  0
  3 12  1  0  0  0  0
  4  6  1  0  0  0  0
  4 11  1  0  0  0  0
  1  6  1  0  0  0  0
  6  8  1  0  0  0  0
  7 17  1  0  0  0  0
  7 18  1  0  0  0  0
  7 19  1  0  0  0  0
  8  9  1  0  0  0  0
  8 20  1  0  0  0  0
  9 10  1  0  0  0  0
  9 21  1  0  0  0  0
 10 11  1  0  0  0  0
 10 22  1  0  0  0  0
 11 23  1  0  0  0  0
  2 12  1  0  0  0  0
  4 12  1  0  0  0  0
  5 12  1  0  0  0  0
M  END
>  <pdb_header>
CRYST1   99.292   99.294   99.288  90.00  90.00  90.00 P 1           1 


$$$$
