top3_centroid
  PyMOL2.3          3D                             0

 20 20  0  0  0  0  0  0  0  0999 V2000
  -16.6880   15.6138   30.3774 N   0  0  0  0  0  0  0  0  0  0  0  0
  -18.7846   14.7493   29.2160 C   0  0  0  0  0  0  0  0  0  0  0  0
  -18.3504   15.3724   31.8405 O   0  0  0  0  0  0  0  0  0  0  0  0
  -18.9364   13.6507   28.3200 C   0  0  0  0  0  0  0  0  0  0  0  0
  -17.1005   13.4203   30.8144 O   0  0  0  0  0  0  0  0  0  0  0  0
  -19.6288   13.8178   27.1094 C   0  0  0  0  0  0  0  0  0  0  0  0
  -20.1480   15.0371   26.7854 C   0  0  0  0  0  0  0  0  0  0  0  0
  -20.1340   16.1250   27.7671 C   0  0  0  0  0  0  0  0  0  0  0  0
  -20.7910   17.4962   27.4930 C   0  0  0  0  0  0  0  0  0  0  0  0
  -19.3638   15.9436   28.9267 C   0  0  0  0  0  0  0  0  0  0  0  0
  -19.7352   12.8132   26.2516 F   0  0  0  0  0  0  0  0  0  0  0  0
  -17.8944   14.6020   30.7469 S   0  0  0  0  0  0  0  0  0  0  0  0
  -16.3777   15.8444   31.3176 H   0  0  0  0  0  0  0  0  0  0  0  0
  -16.0321   14.8442   30.2468 H   0  0  0  0  0  0  0  0  0  0  0  0
  -18.4318   12.7156   28.5574 H   0  0  0  0  0  0  0  0  0  0  0  0
  -20.7200   15.2324   25.8810 H   0  0  0  0  0  0  0  0  0  0  0  0
  -21.4459   17.7078   28.3511 H   0  0  0  0  0  0  0  0  0  0  0  0
  -21.4544   17.3708   26.6336 H   0  0  0  0  0  0  0  0  0  0  0  0
  -20.1596   18.3816   27.6018 H   0  0  0  0  0  0  0  0  0  0  0  0
  -19.3167   16.7582   29.6448 H   0  0  0  0  0  0  0  0  0  0  0  0
  1 13  1  0  0  0  0
  1 14  1  0  0  0  0
  2  4  1  0  0  0  0
  2 10  1  0  0  0  0
  3 12  1  0  0  0  0
  4  6  1  0  0  0  0
  4 15  1  0  0  0  0
  6  7  1  0  0  0  0
  6 11  1  0  0  0  0
  7  8  1  0  0  0  0
  7 16  1  0  0  0  0
  8  9  1  0  0  0  0
  9 17  1  0  0  0  0
  9 18  1  0  0  0  0
  9 19  1  0  0  0  0
  8 10  1  0  0  0  0
 10 20  1  0  0  0  0
  1 12  1  0  0  0  0
  2 12  1  0  0  0  0
  5 12  1  0  0  0  0
M  END
>  <pdb_header>
CRYST1   99.336   99.338   99.332  90.00  90.00  90.00 P 1           1 


$$$$
