top2_centroid
  PyMOL2.3          3D                             0

 29 30  0  0  0  0  0  0  0  0999 V2000
  -20.1629   16.0520   27.0803 N   0  0  0  0  0  0  0  0  0  0  0  0
  -19.2905   20.1747   26.5194 C   0  0  0  0  0  0  0  0  0  0  0  0
  -18.5062   19.6518   28.6683 O   0  0  0  0  0  0  0  0  0  0  0  0
  -18.3345   19.2590   27.3569 C   0  0  0  0  0  0  0  0  0  0  0  0
  -18.8783   15.7057   26.9866 N   0  0  0  0  0  0  0  0  0  0  0  0
  -18.7617   17.8448   27.2449 C   0  0  0  0  0  0  0  0  0  0  0  0
  -20.1429   17.4103   27.1852 C   0  0  0  0  0  0  0  0  0  0  0  0
  -18.6505   14.2712   26.6832 C   0  0  0  0  0  0  0  0  0  0  0  0
  -17.6046   14.0625   25.6107 C   0  0  0  0  0  0  0  0  0  0  0  0
  -17.2593   12.5500   25.7240 C   0  0  0  0  0  0  0  0  0  0  0  0
  -17.4255   12.1876   27.2218 C   0  0  0  0  0  0  0  0  0  0  0  0
  -18.1535   13.4329   27.8704 C   0  0  0  0  0  0  0  0  0  0  0  0
  -17.9378   16.7208   27.0580 C   0  0  0  0  0  0  0  0  0  0  0  0
  -19.1951   19.9872   25.4464 H   0  0  0  0  0  0  0  0  0  0  0  0
  -19.0604   21.2450   26.6299 H   0  0  0  0  0  0  0  0  0  0  0  0
  -20.3700   20.1964   26.6631 H   0  0  0  0  0  0  0  0  0  0  0  0
  -18.8643   20.5488   28.7478 H   0  0  0  0  0  0  0  0  0  0  0  0
  -21.0248   18.0169   27.3303 H   0  0  0  0  0  0  0  0  0  0  0  0
  -19.5675   13.8113   26.2814 H   0  0  0  0  0  0  0  0  0  0  0  0
  -17.9737   14.3145   24.6135 H   0  0  0  0  0  0  0  0  0  0  0  0
  -16.6478   14.5912   25.7367 H   0  0  0  0  0  0  0  0  0  0  0  0
  -17.9812   12.0438   25.0713 H   0  0  0  0  0  0  0  0  0  0  0  0
  -16.2187   12.4321   25.3806 H   0  0  0  0  0  0  0  0  0  0  0  0
  -16.3970   12.2193   27.6021 H   0  0  0  0  0  0  0  0  0  0  0  0
  -17.9030   11.2135   27.3992 H   0  0  0  0  0  0  0  0  0  0  0  0
  -17.4235   13.9605   28.4984 H   0  0  0  0  0  0  0  0  0  0  0  0
  -18.9728   13.1422   28.5521 H   0  0  0  0  0  0  0  0  0  0  0  0
  -16.9164   16.6094   26.7225 H   0  0  0  0  0  0  0  0  0  0  0  0
  -17.3451   19.4912   26.9449 H   0  0  0  0  0  0  0  0  0  0  0  0
  1  5  1  0  0  0  0
  2  4  1  0  0  0  0
  2 14  1  0  0  0  0
  2 15  1  0  0  0  0
  2 16  1  0  0  0  0
  3 17  1  0  0  0  0
  3  4  1  0  0  0  0
  4  6  1  0  0  0  0
  4 29  1  0  0  0  0
  5  8  1  0  0  0  0
  6  7  1  0  0  0  0
  6 13  1  0  0  0  0
  1  7  1  0  0  0  0
  7 18  1  0  0  0  0
  8  9  1  0  0  0  0
  8 12  1  0  0  0  0
  8 19  1  0  0  0  0
  9 10  1  0  0  0  0
  9 20  1  0  0  0  0
  9 21  1  0  0  0  0
 10 11  1  0  0  0  0
 10 22  1  0  0  0  0
 10 23  1  0  0  0  0
 11 12  1  0  0  0  0
 11 24  1  0  0  0  0
 11 25  1  0  0  0  0
 12 26  1  0  0  0  0
 12 27  1  0  0  0  0
  5 13  1  0  0  0  0
 13 28  1  0  0  0  0
M  END
>  <pdb_header>
CRYST1   99.182   99.184   99.178  90.00  90.00  90.00 P 1           1 


$$$$
