top3_centroid
  PyMOL2.3          3D                             0

 29 30  0  0  0  0  0  0  0  0999 V2000
  -21.8144   11.2343   24.6822 N   0  0  0  0  0  0  0  0  0  0  0  0
  -24.6431   11.2765   28.3688 C   0  0  0  0  0  0  0  0  0  0  0  0
  -25.1005   13.1131   26.7788 O   0  0  0  0  0  0  0  0  0  0  0  0
  -24.7203   11.7178   26.9330 C   0  0  0  0  0  0  0  0  0  0  0  0
  -21.2230   11.8254   25.7869 N   0  0  0  0  0  0  0  0  0  0  0  0
  -23.3693   11.6107   26.3119 C   0  0  0  0  0  0  0  0  0  0  0  0
  -23.1283   11.0809   25.0276 C   0  0  0  0  0  0  0  0  0  0  0  0
  -19.7511   12.1036   25.8320 C   0  0  0  0  0  0  0  0  0  0  0  0
  -18.9506   12.4783   24.6003 C   0  0  0  0  0  0  0  0  0  0  0  0
  -17.8183   13.4595   25.0104 C   0  0  0  0  0  0  0  0  0  0  0  0
  -18.1159   13.8571   26.4746 C   0  0  0  0  0  0  0  0  0  0  0  0
  -19.4880   13.2379   26.8033 C   0  0  0  0  0  0  0  0  0  0  0  0
  -22.1980   12.0927   26.7778 C   0  0  0  0  0  0  0  0  0  0  0  0
  -24.3700   10.2159   28.3163 H   0  0  0  0  0  0  0  0  0  0  0  0
  -25.6237   11.4239   28.8364 H   0  0  0  0  0  0  0  0  0  0  0  0
  -23.8573   11.8323   28.8995 H   0  0  0  0  0  0  0  0  0  0  0  0
  -24.7798   13.6426   27.5395 H   0  0  0  0  0  0  0  0  0  0  0  0
  -23.7408   10.5930   24.2843 H   0  0  0  0  0  0  0  0  0  0  0  0
  -19.3395   11.1846   26.2612 H   0  0  0  0  0  0  0  0  0  0  0  0
  -18.5680   11.5673   24.1276 H   0  0  0  0  0  0  0  0  0  0  0  0
  -19.5850   13.0753   23.9384 H   0  0  0  0  0  0  0  0  0  0  0  0
  -16.8613   12.9525   24.8451 H   0  0  0  0  0  0  0  0  0  0  0  0
  -17.9440   14.3362   24.3629 H   0  0  0  0  0  0  0  0  0  0  0  0
  -18.0582   14.9375   26.6847 H   0  0  0  0  0  0  0  0  0  0  0  0
  -17.3326   13.3489   27.0521 H   0  0  0  0  0  0  0  0  0  0  0  0
  -20.2502   13.9883   26.5613 H   0  0  0  0  0  0  0  0  0  0  0  0
  -19.5449   12.9977   27.8681 H   0  0  0  0  0  0  0  0  0  0  0  0
  -22.0336   12.6213   27.7062 H   0  0  0  0  0  0  0  0  0  0  0  0
  -25.5220   11.1809   26.3984 H   0  0  0  0  0  0  0  0  0  0  0  0
  1  5  1  0  0  0  0
  2  4  1  0  0  0  0
  2 14  1  0  0  0  0
  2 15  1  0  0  0  0
  2 16  1  0  0  0  0
  3 17  1  0  0  0  0
  3  4  1  0  0  0  0
  4  6  1  0  0  0  0
  4 29  1  0  0  0  0
  5  8  1  0  0  0  0
  6  7  1  0  0  0  0
  6 13  1  0  0  0  0
  1  7  1  0  0  0  0
  7 18  1  0  0  0  0
  8  9  1  0  0  0  0
  8 12  1  0  0  0  0
  8 19  1  0  0  0  0
  9 10  1  0  0  0  0
  9 20  1  0  0  0  0
  9 21  1  0  0  0  0
 10 11  1  0  0  0  0
 10 22  1  0  0  0  0
 10 23  1  0  0  0  0
 11 12  1  0  0  0  0
 11 24  1  0  0  0  0
 11 25  1  0  0  0  0
 12 26  1  0  0  0  0
 12 27  1  0  0  0  0
  5 13  1  0  0  0  0
 13 28  1  0  0  0  0
M  END
>  <pdb_header>
CRYST1   99.182   99.184   99.178  90.00  90.00  90.00 P 1           1 


$$$$
