top3_centroid
  PyMOL2.3          3D                             0

 23 24  0  0  0  0  0  0  0  0999 V2000
  -18.5922   15.2791   28.4597 N   0  0  0  0  0  0  0  0  0  0  0  0
  -17.9769   13.9399   28.8340 C   0  0  0  0  0  0  0  0  0  0  0  0
  -14.3130   19.6388   28.3957 O   0  0  0  0  0  0  0  0  0  0  0  0
  -18.7942   17.2747   27.7942 C   0  0  0  0  0  0  0  0  0  0  0  0
  -19.9259   15.4815   28.2919 N   0  0  0  0  0  0  0  0  0  0  0  0
  -13.8670   17.6759   29.0533 O   0  0  0  0  0  0  0  0  0  0  0  0
  -17.8987   16.3990   28.2525 C   0  0  0  0  0  0  0  0  0  0  0  0
  -20.0538   16.7157   27.8301 N   0  0  0  0  0  0  0  0  0  0  0  0
  -16.3974   16.7097   28.3948 C   0  0  0  0  0  0  0  0  0  0  0  0
  -16.1770   18.1874   28.6747 C   0  0  0  0  0  0  0  0  0  0  0  0
  -14.6794   18.4870   28.7209 C   0  0  0  0  0  0  0  0  0  0  0  0
  -16.9091   18.9940   27.6127 C   0  0  0  0  0  0  0  0  0  0  0  0
  -18.4117   18.7046   27.4496 C   0  0  0  0  0  0  0  0  0  0  0  0
  -17.5335   13.3920   27.9853 H   0  0  0  0  0  0  0  0  0  0  0  0
  -18.7387   13.3112   29.3186 H   0  0  0  0  0  0  0  0  0  0  0  0
  -17.1383   14.0088   29.5453 H   0  0  0  0  0  0  0  0  0  0  0  0
  -16.0061   16.0992   29.2208 H   0  0  0  0  0  0  0  0  0  0  0  0
  -15.8809   16.4464   27.4709 H   0  0  0  0  0  0  0  0  0  0  0  0
  -16.7505   20.0742   27.7664 H   0  0  0  0  0  0  0  0  0  0  0  0
  -16.3964   18.6446   26.7019 H   0  0  0  0  0  0  0  0  0  0  0  0
  -18.7007   18.8403   26.4009 H   0  0  0  0  0  0  0  0  0  0  0  0
  -18.8773   19.4669   28.0879 H   0  0  0  0  0  0  0  0  0  0  0  0
  -16.6059   18.5562   29.6252 H   0  0  0  0  0  0  0  0  0  0  0  0
  1  2  1  0  0  0  0
  1  5  1  0  0  0  0
  2 14  1  0  0  0  0
  2 15  1  0  0  0  0
  2 16  1  0  0  0  0
  4 13  1  0  0  0  0
  5  8  1  0  0  0  0
  1  7  1  0  0  0  0
  4  7  1  0  0  0  0
  4  8  1  0  0  0  0
  7  9  1  0  0  0  0
  9 10  1  0  0  0  0
  9 17  1  0  0  0  0
  9 18  1  0  0  0  0
 10 11  1  0  0  0  0
 10 23  1  0  0  0  0
  3 11  1  0  0  0  0
  6 11  1  0  0  0  0
 10 12  1  0  0  0  0
 12 19  1  0  0  0  0
 12 20  1  0  0  0  0
 12 13  1  0  0  0  0
 13 21  1  0  0  0  0
 13 22  1  0  0  0  0
M  END
>  <pdb_header>
CRYST1   99.106   99.108   99.102  90.00  90.00  90.00 P 1           1 


$$$$
