top5_centroid
  PyMOL2.3          3D                             0

 23 24  0  0  0  0  0  0  0  0999 V2000
  -21.8672   16.8059   30.0021 N   0  0  0  0  0  0  0  0  0  0  0  0
  -21.1028   16.8140   28.6941 C   0  0  0  0  0  0  0  0  0  0  0  0
  -20.7467   15.5871   27.9100 C   0  0  0  0  0  0  0  0  0  0  0  0
  -19.5314   15.0097   27.8106 N   0  0  0  0  0  0  0  0  0  0  0  0
  -19.6445   14.1338   26.9138 C   0  0  0  0  0  0  0  0  0  0  0  0
  -20.8392   14.2006   26.3163 N   0  0  0  0  0  0  0  0  0  0  0  0
  -18.7739   13.0248   26.6834 C   0  0  0  0  0  0  0  0  0  0  0  0
  -21.5583   15.1308   26.9639 N   0  0  0  0  0  0  0  0  0  0  0  0
  -17.7647   13.0225   27.6439 C   0  0  0  0  0  0  0  0  0  0  0  0
  -17.6009   14.0974   28.6285 C   0  0  0  0  0  0  0  0  0  0  0  0
  -18.4852   15.1525   28.7033 C   0  0  0  0  0  0  0  0  0  0  0  0
  -21.6543   18.1410   30.6073 C   0  0  0  0  0  0  0  0  0  0  0  0
  -22.8274   16.4789   29.8015 H   0  0  0  0  0  0  0  0  0  0  0  0
  -21.5936   15.9952   30.5732 H   0  0  0  0  0  0  0  0  0  0  0  0
  -21.7039   17.3381   27.9417 H   0  0  0  0  0  0  0  0  0  0  0  0
  -20.2210   17.4609   28.6751 H   0  0  0  0  0  0  0  0  0  0  0  0
  -18.9238   12.2678   25.9226 H   0  0  0  0  0  0  0  0  0  0  0  0
  -17.0063   12.2510   27.7221 H   0  0  0  0  0  0  0  0  0  0  0  0
  -16.7687   14.1058   29.3169 H   0  0  0  0  0  0  0  0  0  0  0  0
  -18.4393   15.9513   29.4317 H   0  0  0  0  0  0  0  0  0  0  0  0
  -21.8169   18.8970   29.8337 H   0  0  0  0  0  0  0  0  0  0  0  0
  -20.6184   18.3401   30.8844 H   0  0  0  0  0  0  0  0  0  0  0  0
  -22.2754   18.3144   31.4830 H   0  0  0  0  0  0  0  0  0  0  0  0
  1  2  1  0  0  0  0
  1 13  1  0  0  0  0
  1 14  1  0  0  0  0
  2  3  1  0  0  0  0
  2 15  1  0  0  0  0
  2 16  1  0  0  0  0
  3  4  1  0  0  0  0
  3  8  1  0  0  0  0
  4  5  1  0  0  0  0
  4 11  1  0  0  0  0
  5  7  1  0  0  0  0
  5  6  1  0  0  0  0
  7  9  1  0  0  0  0
  7 17  1  0  0  0  0
  6  8  1  0  0  0  0
  9 10  1  0  0  0  0
  9 18  1  0  0  0  0
 10 11  1  0  0  0  0
 10 19  1  0  0  0  0
 11 20  1  0  0  0  0
  1 12  1  0  0  0  0
 12 21  1  0  0  0  0
 12 22  1  0  0  0  0
 12 23  1  0  0  0  0
M  END
>  <pdb_header>
CRYST1   99.178   99.180   99.174  90.00  90.00  90.00 P 1           1 


$$$$
