top2_centroid
  PyMOL2.3          3D                             0

 24 24  0  0  0  0  0  0  0  0999 V2000
  -19.3604   14.6556   27.1901 N   0  0  0  0  0  0  0  0  0  0  0  0
  -20.5763   15.2908   27.0382 C   0  0  0  0  0  0  0  0  0  0  0  0
  -21.5056   14.9586   27.6616 O   0  0  0  0  0  0  0  0  0  0  0  0
  -21.7030   17.2336   26.0605 C   0  0  0  0  0  0  0  0  0  0  0  0
  -20.5619   16.4085   26.2337 O   0  0  0  0  0  0  0  0  0  0  0  0
  -22.9422   16.4164   25.6261 C   0  0  0  0  0  0  0  0  0  0  0  0
  -16.8598   13.3866   27.2331 O   0  0  0  0  0  0  0  0  0  0  0  0
  -19.2208   13.3487   27.9160 C   0  0  0  0  0  0  0  0  0  0  0  0
  -17.7726   13.0374   28.3159 C   0  0  0  0  0  0  0  0  0  0  0  0
  -16.7590   14.7328   27.0398 C   0  0  0  0  0  0  0  0  0  0  0  0
  -18.1509   15.2233   26.4843 C   0  0  0  0  0  0  0  0  0  0  0  0
  -22.0167   17.7273   26.9820 H   0  0  0  0  0  0  0  0  0  0  0  0
  -21.5267   18.0946   25.3955 H   0  0  0  0  0  0  0  0  0  0  0  0
  -23.6454   17.1430   25.1787 H   0  0  0  0  0  0  0  0  0  0  0  0
  -23.4286   16.0036   26.5195 H   0  0  0  0  0  0  0  0  0  0  0  0
  -22.6927   15.6424   24.8969 H   0  0  0  0  0  0  0  0  0  0  0  0
  -19.8572   13.3822   28.8156 H   0  0  0  0  0  0  0  0  0  0  0  0
  -19.5029   12.5178   27.2650 H   0  0  0  0  0  0  0  0  0  0  0  0
  -17.7063   11.9678   28.5419 H   0  0  0  0  0  0  0  0  0  0  0  0
  -17.7589   13.6294   29.2355 H   0  0  0  0  0  0  0  0  0  0  0  0
  -16.4688   15.2361   27.9723 H   0  0  0  0  0  0  0  0  0  0  0  0
  -16.0374   15.0417   26.2835 H   0  0  0  0  0  0  0  0  0  0  0  0
  -18.3057   15.0759   25.4090 H   0  0  0  0  0  0  0  0  0  0  0  0
  -18.1455   16.2979   26.6567 H   0  0  0  0  0  0  0  0  0  0  0  0
  1  8  1  0  0  0  0
  1 11  1  0  0  0  0
  1  2  1  0  0  0  0
  2  3  2  0  0  0  0
  4  5  1  0  0  0  0
  4 12  1  0  0  0  0
  4 13  1  0  0  0  0
  2  5  1  0  0  0  0
  4  6  1  0  0  0  0
  6 14  1  0  0  0  0
  6 15  1  0  0  0  0
  6 16  1  0  0  0  0
  7 10  1  0  0  0  0
  8  9  1  0  0  0  0
  8 17  1  0  0  0  0
  8 18  1  0  0  0  0
  7  9  1  0  0  0  0
  9 19  1  0  0  0  0
  9 20  1  0  0  0  0
 10 11  1  0  0  0  0
 10 21  1  0  0  0  0
 10 22  1  0  0  0  0
 11 23  1  0  0  0  0
 11 24  1  0  0  0  0
M  END
>  <pdb_header>
CRYST1   99.399   99.401   99.395  90.00  90.00  90.00 P 1           1 


$$$$
