top1_centroid
  PyMOL2.3          3D                             0

 24 24  0  0  0  0  0  0  0  0999 V2000
  -19.2762   13.8323   27.4538 N   0  0  0  0  0  0  0  0  0  0  0  0
  -19.3060   13.1406   25.0447 C   0  0  0  0  0  0  0  0  0  0  0  0
  -19.2060   11.9464   24.2911 O   0  0  0  0  0  0  0  0  0  0  0  0
  -19.4223   12.7149   26.5867 C   0  0  0  0  0  0  0  0  0  0  0  0
  -19.6977   16.2076   27.4151 N   0  0  0  0  0  0  0  0  0  0  0  0
  -18.1096   13.8022   28.3790 C   0  0  0  0  0  0  0  0  0  0  0  0
  -20.2320   14.8775   27.5051 C   0  0  0  0  0  0  0  0  0  0  0  0
  -20.5634   17.2771   27.3684 C   0  0  0  0  0  0  0  0  0  0  0  0
  -21.8713   16.8869   27.2796 C   0  0  0  0  0  0  0  0  0  0  0  0
  -22.4720   15.6527   27.2999 C   0  0  0  0  0  0  0  0  0  0  0  0
  -21.6144   14.6012   27.4586 C   0  0  0  0  0  0  0  0  0  0  0  0
  -20.1295   11.8902   23.9872 H   0  0  0  0  0  0  0  0  0  0  0  0
  -18.3728   13.7057   25.0063 H   0  0  0  0  0  0  0  0  0  0  0  0
  -20.2260   13.7046   24.8273 H   0  0  0  0  0  0  0  0  0  0  0  0
  -18.6364   11.9598   26.7411 H   0  0  0  0  0  0  0  0  0  0  0  0
  -20.3809   12.2011   26.7440 H   0  0  0  0  0  0  0  0  0  0  0  0
  -17.7629   14.8122   28.6451 H   0  0  0  0  0  0  0  0  0  0  0  0
  -17.2966   13.2795   27.8674 H   0  0  0  0  0  0  0  0  0  0  0  0
  -18.3880   13.3626   29.3526 H   0  0  0  0  0  0  0  0  0  0  0  0
  -18.7149   16.3752   27.2379 H   0  0  0  0  0  0  0  0  0  0  0  0
  -20.1565   18.2777   27.4446 H   0  0  0  0  0  0  0  0  0  0  0  0
  -22.5043   17.7648   27.1941 H   0  0  0  0  0  0  0  0  0  0  0  0
  -23.5273   15.4771   27.1635 H   0  0  0  0  0  0  0  0  0  0  0  0
  -21.9271   13.5737   27.6291 H   0  0  0  0  0  0  0  0  0  0  0  0
  1  6  1  0  0  0  0
  1  7  1  0  0  0  0
  2  4  1  0  0  0  0
  2 13  1  0  0  0  0
  2 14  1  0  0  0  0
  2  3  2  0  0  0  0
  3 12  1  0  0  0  0
  1  4  1  0  0  0  0
  4 15  1  0  0  0  0
  4 16  1  0  0  0  0
  5  8  1  0  0  0  0
  5 20  1  0  0  0  0
  6 17  1  0  0  0  0
  6 18  1  0  0  0  0
  6 19  1  0  0  0  0
  5  7  1  0  0  0  0
  7 11  1  0  0  0  0
  8  9  1  0  0  0  0
  8 21  1  0  0  0  0
  9 10  1  0  0  0  0
  9 22  1  0  0  0  0
 10 11  1  0  0  0  0
 10 23  1  0  0  0  0
 11 24  1  0  0  0  0
M  END
>  <pdb_header>
CRYST1   99.158   99.160   99.154  90.00  90.00  90.00 P 1           1 


$$$$
