top5_centroid
  PyMOL2.3          3D                             0

 24 24  0  0  0  0  0  0  0  0999 V2000
  -18.6845   19.5848   27.0404 N   0  0  0  0  0  0  0  0  0  0  0  0
  -19.9419   20.5905   29.0281 C   0  0  0  0  0  0  0  0  0  0  0  0
  -18.6571   20.4825   29.6513 O   0  0  0  0  0  0  0  0  0  0  0  0
  -19.7687   20.5252   27.4900 C   0  0  0  0  0  0  0  0  0  0  0  0
  -20.2490   17.7732   27.0985 N   0  0  0  0  0  0  0  0  0  0  0  0
  -17.3408   20.0375   26.7905 C   0  0  0  0  0  0  0  0  0  0  0  0
  -18.9354   18.1987   27.2460 C   0  0  0  0  0  0  0  0  0  0  0  0
  -20.6476   16.4501   27.1794 C   0  0  0  0  0  0  0  0  0  0  0  0
  -19.5855   15.6228   27.6801 C   0  0  0  0  0  0  0  0  0  0  0  0
  -18.1995   16.0407   27.8080 C   0  0  0  0  0  0  0  0  0  0  0  0
  -17.8744   17.3188   27.6644 C   0  0  0  0  0  0  0  0  0  0  0  0
  -18.6751   19.6378   30.1446 H   0  0  0  0  0  0  0  0  0  0  0  0
  -20.5457   19.7631   29.4083 H   0  0  0  0  0  0  0  0  0  0  0  0
  -20.3728   21.5798   29.2174 H   0  0  0  0  0  0  0  0  0  0  0  0
  -19.5800   21.4805   26.9858 H   0  0  0  0  0  0  0  0  0  0  0  0
  -20.7341   20.3028   27.0077 H   0  0  0  0  0  0  0  0  0  0  0  0
  -16.7553   19.3037   26.2347 H   0  0  0  0  0  0  0  0  0  0  0  0
  -16.7855   20.3861   27.6831 H   0  0  0  0  0  0  0  0  0  0  0  0
  -17.2968   20.9548   26.1831 H   0  0  0  0  0  0  0  0  0  0  0  0
  -20.9783   18.4644   27.0710 H   0  0  0  0  0  0  0  0  0  0  0  0
  -21.6424   16.0651   26.9927 H   0  0  0  0  0  0  0  0  0  0  0  0
  -19.8379   14.5684   27.7524 H   0  0  0  0  0  0  0  0  0  0  0  0
  -17.4952   15.2485   28.0025 H   0  0  0  0  0  0  0  0  0  0  0  0
  -16.8453   17.6325   27.7574 H   0  0  0  0  0  0  0  0  0  0  0  0
  1  6  1  0  0  0  0
  1  7  1  0  0  0  0
  2  4  1  0  0  0  0
  2 13  1  0  0  0  0
  2 14  1  0  0  0  0
  2  3  2  0  0  0  0
  3 12  1  0  0  0  0
  1  4  1  0  0  0  0
  4 15  1  0  0  0  0
  4 16  1  0  0  0  0
  5  8  1  0  0  0  0
  5 20  1  0  0  0  0
  6 17  1  0  0  0  0
  6 18  1  0  0  0  0
  6 19  1  0  0  0  0
  5  7  1  0  0  0  0
  7 11  1  0  0  0  0
  8  9  1  0  0  0  0
  8 21  1  0  0  0  0
  9 10  1  0  0  0  0
  9 22  1  0  0  0  0
 10 11  1  0  0  0  0
 10 23  1  0  0  0  0
 11 24  1  0  0  0  0
M  END
>  <pdb_header>
CRYST1   99.175   99.177   99.171  90.00  90.00  90.00 P 1           1 


$$$$
