top1_centroid
  PyMOL2.3          3D                             0

 17 18  0  0  0  0  0  0  0  0999 V2000
  -17.1433   15.0391   25.4462 N   0  0  0  0  0  0  0  0  0  0  0  0
  -17.6199   11.6392   23.8843 C   0  0  0  0  0  0  0  0  0  0  0  0
  -17.6068   16.4048   27.2771 O   0  0  0  0  0  0  0  0  0  0  0  0
  -17.1776   12.9663   23.9961 C   0  0  0  0  0  0  0  0  0  0  0  0
  -17.5008   13.7194   25.1629 C   0  0  0  0  0  0  0  0  0  0  0  0
  -17.6315   15.3319   26.6762 C   0  0  0  0  0  0  0  0  0  0  0  0
  -18.3100   14.1258   27.2822 C   0  0  0  0  0  0  0  0  0  0  0  0
  -18.1683   13.0475   26.1799 C   0  0  0  0  0  0  0  0  0  0  0  0
  -18.6088   11.7150   26.1670 C   0  0  0  0  0  0  0  0  0  0  0  0
  -18.2331   11.0299   24.9694 C   0  0  0  0  0  0  0  0  0  0  0  0
  -17.1496   10.5724   22.4357 B   0  0  0  0  0  0  0  0  0  0  0  0
  -16.6592   13.4056   23.1496 H   0  0  0  0  0  0  0  0  0  0  0  0
  -16.7583   15.6641   24.7573 H   0  0  0  0  0  0  0  0  0  0  0  0
  -17.8224   13.8299   28.2089 H   0  0  0  0  0  0  0  0  0  0  0  0
  -19.3705   14.3628   27.4717 H   0  0  0  0  0  0  0  0  0  0  0  0
  -19.1906   11.2963   26.9824 H   0  0  0  0  0  0  0  0  0  0  0  0
  -18.4058    9.9585   24.9078 H   0  0  0  0  0  0  0  0  0  0  0  0
  1  6  1  0  0  0  0
  1 13  1  0  0  0  0
  2  4  1  0  0  0  0
  2 10  1  0  0  0  0
  4  5  1  0  0  0  0
  4 12  1  0  0  0  0
  1  5  1  0  0  0  0
  5  8  1  0  0  0  0
  3  6  1  0  0  0  0
  6  7  1  0  0  0  0
  7  8  1  0  0  0  0
  7 14  1  0  0  0  0
  7 15  1  0  0  0  0
  8  9  1  0  0  0  0
  9 10  1  0  0  0  0
  9 16  1  0  0  0  0
 10 17  1  0  0  0  0
  2 11  1  0  0  0  0
M  END
>  <pdb_header>
CRYST1   99.467   99.469   99.463  90.00  90.00  90.00 P 1           1 


$$$$
