top2_centroid
  PyMOL2.3          3D                             0

 27 28  0  0  0  0  0  0  0  0999 V2000
  -14.9360   18.0078   25.1978 N   0  0  0  0  0  0  0  0  0  0  0  0
  -14.8216   19.5449   30.8802 C   0  0  0  0  0  0  0  0  0  0  0  0
  -14.2774   18.5952   30.0081 O   0  0  0  0  0  0  0  0  0  0  0  0
  -15.0261   18.0253   28.9806 C   0  0  0  0  0  0  0  0  0  0  0  0
  -14.2602   19.2178   23.4281 O   0  0  0  0  0  0  0  0  0  0  0  0
  -14.5556   18.3083   27.6364 C   0  0  0  0  0  0  0  0  0  0  0  0
  -15.2472   17.7489   26.5674 C   0  0  0  0  0  0  0  0  0  0  0  0
  -14.7151   19.1279   24.5670 C   0  0  0  0  0  0  0  0  0  0  0  0
  -14.9031   20.3344   25.5160 C   0  0  0  0  0  0  0  0  0  0  0  0
  -13.7872   20.6047   26.5496 C   0  0  0  0  0  0  0  0  0  0  0  0
  -13.3488   19.2799   27.3216 C   0  0  0  0  0  0  0  0  0  0  0  0
  -16.3072   16.8169   26.8026 C   0  0  0  0  0  0  0  0  0  0  0  0
  -16.7900   16.6610   28.1148 C   0  0  0  0  0  0  0  0  0  0  0  0
  -16.0736   17.1656   29.2145 C   0  0  0  0  0  0  0  0  0  0  0  0
  -15.8448   19.2231   31.0869 H   0  0  0  0  0  0  0  0  0  0  0  0
  -14.8707   20.5725   30.4876 H   0  0  0  0  0  0  0  0  0  0  0  0
  -14.2409   19.4661   31.8069 H   0  0  0  0  0  0  0  0  0  0  0  0
  -14.6420   17.1657   24.7088 H   0  0  0  0  0  0  0  0  0  0  0  0
  -14.9395   21.1956   24.8340 H   0  0  0  0  0  0  0  0  0  0  0  0
  -15.8550   20.3113   26.0617 H   0  0  0  0  0  0  0  0  0  0  0  0
  -12.8636   21.0312   26.1381 H   0  0  0  0  0  0  0  0  0  0  0  0
  -14.1458   21.2598   27.3496 H   0  0  0  0  0  0  0  0  0  0  0  0
  -12.7661   19.5014   28.2279 H   0  0  0  0  0  0  0  0  0  0  0  0
  -12.6775   18.7402   26.6460 H   0  0  0  0  0  0  0  0  0  0  0  0
  -16.7466   16.2616   25.9796 H   0  0  0  0  0  0  0  0  0  0  0  0
  -17.5707   15.9302   28.3038 H   0  0  0  0  0  0  0  0  0  0  0  0
  -16.4258   16.9489   30.2111 H   0  0  0  0  0  0  0  0  0  0  0  0
  1  8  1  0  0  0  0
  1 18  1  0  0  0  0
  2 15  1  0  0  0  0
  2 16  1  0  0  0  0
  2 17  1  0  0  0  0
  2  3  2  0  0  0  0
  3  4  1  0  0  0  0
  4 14  1  0  0  0  0
  4  6  1  0  0  0  0
  6  7  1  0  0  0  0
  6 11  1  0  0  0  0
  1  7  1  0  0  0  0
  5  8  1  0  0  0  0
  8  9  1  0  0  0  0
  9 10  1  0  0  0  0
  9 19  1  0  0  0  0
  9 20  1  0  0  0  0
 10 11  1  0  0  0  0
 10 21  1  0  0  0  0
 10 22  1  0  0  0  0
 11 23  1  0  0  0  0
 11 24  1  0  0  0  0
  7 12  1  0  0  0  0
 12 25  1  0  0  0  0
 12 13  1  0  0  0  0
 13 26  1  0  0  0  0
 13 14  1  0  0  0  0
 14 27  1  0  0  0  0
M  END
>  <pdb_header>
CRYST1   99.313   99.315   99.309  90.00  90.00  90.00 P 1           1 


$$$$
