top1_centroid
  PyMOL2.3          3D                             0

 31 32  0  0  0  0  0  0  0  0999 V2000
  -18.8546   14.5566   24.8814 N   0  0  0  0  0  0  0  0  0  0  0  0
  -19.8393   14.4701   25.8094 C   0  0  0  0  0  0  0  0  0  0  0  0
  -20.5330   13.4986   26.0494 O   0  0  0  0  0  0  0  0  0  0  0  0
  -18.6605   13.3836   23.9621 C   0  0  0  0  0  0  0  0  0  0  0  0
  -15.0909   13.2479   23.7430 N   0  0  0  0  0  0  0  0  0  0  0  0
  -17.1998   13.0910   23.8318 C   0  0  0  0  0  0  0  0  0  0  0  0
  -15.2978   11.9649   23.9991 N   0  0  0  0  0  0  0  0  0  0  0  0
  -16.1885   14.0239   23.6277 C   0  0  0  0  0  0  0  0  0  0  0  0
  -21.6132   17.1744   27.8400 N   0  0  0  0  0  0  0  0  0  0  0  0
  -13.6479   13.6755   23.6961 C   0  0  0  0  0  0  0  0  0  0  0  0
  -13.2698   15.0331   23.0324 C   0  0  0  0  0  0  0  0  0  0  0  0
  -16.6085   11.8719   24.1498 C   0  0  0  0  0  0  0  0  0  0  0  0
  -20.0993   15.7149   26.5346 C   0  0  0  0  0  0  0  0  0  0  0  0
  -21.3986   16.0809   27.0707 C   0  0  0  0  0  0  0  0  0  0  0  0
  -20.5632   17.9622   28.1715 C   0  0  0  0  0  0  0  0  0  0  0  0
  -19.3035   17.7578   27.6349 C   0  0  0  0  0  0  0  0  0  0  0  0
  -19.0372   16.6230   26.7955 C   0  0  0  0  0  0  0  0  0  0  0  0
  -18.4376   15.4700   24.7528 H   0  0  0  0  0  0  0  0  0  0  0  0
  -18.9494   13.6716   22.9424 H   0  0  0  0  0  0  0  0  0  0  0  0
  -19.1971   12.4662   24.2258 H   0  0  0  0  0  0  0  0  0  0  0  0
  -16.0662   15.1017   23.5614 H   0  0  0  0  0  0  0  0  0  0  0  0
  -13.3176   13.6469   24.7429 H   0  0  0  0  0  0  0  0  0  0  0  0
  -13.1048   12.8988   23.1491 H   0  0  0  0  0  0  0  0  0  0  0  0
  -13.5984   15.8872   23.6440 H   0  0  0  0  0  0  0  0  0  0  0  0
  -13.6474   15.1182   22.0080 H   0  0  0  0  0  0  0  0  0  0  0  0
  -12.2049   15.1121   22.8322 H   0  0  0  0  0  0  0  0  0  0  0  0
  -17.0064   10.8827   24.3023 H   0  0  0  0  0  0  0  0  0  0  0  0
  -22.2633   15.4466   26.9257 H   0  0  0  0  0  0  0  0  0  0  0  0
  -20.8079   18.8731   28.7339 H   0  0  0  0  0  0  0  0  0  0  0  0
  -18.4859   18.4715   27.7258 H   0  0  0  0  0  0  0  0  0  0  0  0
  -18.0597   16.4939   26.3474 H   0  0  0  0  0  0  0  0  0  0  0  0
  1  2  1  0  0  0  0
  1 18  1  0  0  0  0
  2  3  2  0  0  0  0
  2 13  1  0  0  0  0
  1  4  1  0  0  0  0
  4 19  1  0  0  0  0
  4 20  1  0  0  0  0
  5  7  1  0  0  0  0
  5  8  1  0  0  0  0
  4  6  1  0  0  0  0
  7 12  1  0  0  0  0
  6  8  1  0  0  0  0
  8 21  1  0  0  0  0
  9 15  1  0  0  0  0
  5 10  1  0  0  0  0
 10 22  1  0  0  0  0
 10 23  1  0  0  0  0
 10 11  1  0  0  0  0
 11 24  1  0  0  0  0
 11 25  1  0  0  0  0
 11 26  1  0  0  0  0
  6 12  1  0  0  0  0
 12 27  1  0  0  0  0
 13 14  1  0  0  0  0
 13 17  1  0  0  0  0
  9 14  1  0  0  0  0
 14 28  1  0  0  0  0
 15 16  1  0  0  0  0
 15 29  1  0  0  0  0
 16 17  1  0  0  0  0
 16 30  1  0  0  0  0
 17 31  1  0  0  0  0
M  END
>  <pdb_header>
CRYST1   99.229   99.231   99.225  90.00  90.00  90.00 P 1           1 


$$$$
