top1_centroid
  PyMOL2.3          3D                             0

 26 26  0  0  0  0  0  0  0  0999 V2000
  -14.9435   18.1361   27.7017 N   0  0  0  0  0  0  0  0  0  0  0  0
  -15.8609   17.4356   26.8179 C   0  0  0  0  0  0  0  0  0  0  0  0
  -13.8382   20.3192   28.1614 O   0  0  0  0  0  0  0  0  0  0  0  0
  -16.5534   16.3157   27.6365 C   0  0  0  0  0  0  0  0  0  0  0  0
  -15.0951   19.9861   26.0341 O   0  0  0  0  0  0  0  0  0  0  0  0
  -17.4575   15.3960   26.9246 C   0  0  0  0  0  0  0  0  0  0  0  0
  -18.8006   15.0961   27.3478 C   0  0  0  0  0  0  0  0  0  0  0  0
  -19.5879   14.0957   26.7310 C   0  0  0  0  0  0  0  0  0  0  0  0
  -19.0982   13.3971   25.6445 C   0  0  0  0  0  0  0  0  0  0  0  0
  -17.7521   13.6787   25.2370 C   0  0  0  0  0  0  0  0  0  0  0  0
  -16.9966   14.6529   25.8340 C   0  0  0  0  0  0  0  0  0  0  0  0
  -12.8968   18.7686   26.2807 C   0  0  0  0  0  0  0  0  0  0  0  0
  -19.7458   12.4402   24.9794 F   0  0  0  0  0  0  0  0  0  0  0  0
  -14.2858   19.4730   27.0938 S   0  0  0  0  0  0  0  0  0  0  0  0
  -15.5350   18.5800   28.4017 H   0  0  0  0  0  0  0  0  0  0  0  0
  -16.5401   18.0535   26.2244 H   0  0  0  0  0  0  0  0  0  0  0  0
  -15.3067   16.9605   25.9911 H   0  0  0  0  0  0  0  0  0  0  0  0
  -15.7401   15.7754   28.1274 H   0  0  0  0  0  0  0  0  0  0  0  0
  -17.1291   16.7825   28.4456 H   0  0  0  0  0  0  0  0  0  0  0  0
  -19.1659   15.5747   28.2516 H   0  0  0  0  0  0  0  0  0  0  0  0
  -20.5998   13.9117   27.0719 H   0  0  0  0  0  0  0  0  0  0  0  0
  -17.4395   13.1225   24.3590 H   0  0  0  0  0  0  0  0  0  0  0  0
  -15.9717   14.8561   25.5261 H   0  0  0  0  0  0  0  0  0  0  0  0
  -13.1837   17.7510   26.0018 H   0  0  0  0  0  0  0  0  0  0  0  0
  -12.0835   18.7401   27.0218 H   0  0  0  0  0  0  0  0  0  0  0  0
  -12.6148   19.4137   25.4347 H   0  0  0  0  0  0  0  0  0  0  0  0
  1  2  1  0  0  0  0
  1 15  1  0  0  0  0
  2  4  1  0  0  0  0
  2 16  1  0  0  0  0
  2 17  1  0  0  0  0
  3 14  1  0  0  0  0
  4  6  1  0  0  0  0
  4 18  1  0  0  0  0
  4 19  1  0  0  0  0
  6  7  1  0  0  0  0
  6 11  1  0  0  0  0
  7  8  1  0  0  0  0
  7 20  1  0  0  0  0
  8  9  1  0  0  0  0
  8 21  1  0  0  0  0
  9 10  1  0  0  0  0
  9 13  1  0  0  0  0
 10 11  1  0  0  0  0
 10 22  1  0  0  0  0
 11 23  1  0  0  0  0
 12 24  1  0  0  0  0
 12 25  1  0  0  0  0
 12 26  1  0  0  0  0
  1 14  1  0  0  0  0
  5 14  1  0  0  0  0
 12 14  1  0  0  0  0
M  END
>  <pdb_header>
CRYST1   99.341   99.343   99.337  90.00  90.00  90.00 P 1           1 


$$$$
