
     RDKit          3D

 16 16  0  0  0  0  0  0  0  0999 V2000
  -19.5703   12.3867   24.3215 Br  0  0  0  0  0  0  0  0  0  0  0  0
  -18.7798   13.5520   25.5477 C   0  0  0  0  0  0  0  0  0  0  0  0
  -18.6190   14.8872   25.4394 C   0  0  0  0  0  0  0  0  0  0  0  0
  -18.8907   15.5716   24.6791 H   0  0  0  0  0  0  0  0  0  0  0  0
  -17.9987   15.2747   26.5778 N   0  0  0  0  0  0  0  0  0  0  0  0
  -17.5845   16.6101   26.9604 C   0  0  0  0  0  0  0  0  0  0  0  0
  -17.7813   17.2635   26.1032 H   0  0  0  0  0  0  0  0  0  0  0  0
  -18.2248   16.9230   27.7927 H   0  0  0  0  0  0  0  0  0  0  0  0
  -16.1141   16.6587   27.3445 C   0  0  0  0  0  0  0  0  0  0  0  0
  -15.8123   17.6945   27.5240 H   0  0  0  0  0  0  0  0  0  0  0  0
  -15.4727   16.2327   26.5659 H   0  0  0  0  0  0  0  0  0  0  0  0
  -15.9073   15.9364   28.5546 O   0  0  0  0  0  0  0  0  0  0  0  0
  -16.3787   16.4153   29.2588 H   0  0  0  0  0  0  0  0  0  0  0  0
  -17.7647   14.2242   27.4113 N   0  0  0  0  0  0  0  0  0  0  0  0
  -18.2403   13.1850   26.7756 C   0  0  0  0  0  0  0  0  0  0  0  0
  -18.2103   12.1993   27.1629 H   0  0  0  0  0  0  0  0  0  0  0  0
  1  2  1  0
  2  3  2  0
  2 15  1  0
  3  4  1  0
  3  5  1  0
  5  6  1  0
  5 14  1  0
  6  7  1  0
  6  8  1  0
  6  9  1  0
  9 10  1  0
  9 11  1  0
  9 12  1  0
 12 13  1  0
 14 15  2  0
 15 16  1  0
M  END
$$$$
