top1_centroid
  PyMOL2.3          3D                             0

 19 19  0  0  0  0  0  0  0  0999 V2000
  -20.0208   11.8297   26.8064 N   0  0  0  0  0  0  0  0  0  0  0  0
  -19.3915   12.6063   25.8423 C   0  0  0  0  0  0  0  0  0  0  0  0
  -19.1355   12.1151   24.7283 O   0  0  0  0  0  0  0  0  0  0  0  0
  -20.3237   10.4355   26.4504 C   0  0  0  0  0  0  0  0  0  0  0  0
  -17.7879   15.7557   25.8512 N   0  0  0  0  0  0  0  0  0  0  0  0
  -20.1052   11.9999   28.2730 C   0  0  0  0  0  0  0  0  0  0  0  0
  -18.2817   15.8689   27.1455 N   0  0  0  0  0  0  0  0  0  0  0  0
  -18.9641   13.9618   26.0859 C   0  0  0  0  0  0  0  0  0  0  0  0
  -18.1760   14.6667   25.1887 C   0  0  0  0  0  0  0  0  0  0  0  0
  -19.0369   14.8100   27.2697 C   0  0  0  0  0  0  0  0  0  0  0  0
  -21.3201   10.2307   26.8600 H   0  0  0  0  0  0  0  0  0  0  0  0
  -19.5692    9.7689   26.8938 H   0  0  0  0  0  0  0  0  0  0  0  0
  -20.4508   10.3491   25.3689 H   0  0  0  0  0  0  0  0  0  0  0  0
  -20.4260   11.1062   28.8290 H   0  0  0  0  0  0  0  0  0  0  0  0
  -20.7423   12.8376   28.6046 H   0  0  0  0  0  0  0  0  0  0  0  0
  -19.0909   12.2603   28.6087 H   0  0  0  0  0  0  0  0  0  0  0  0
  -17.8524   14.4538   24.1793 H   0  0  0  0  0  0  0  0  0  0  0  0
  -17.0884   16.4251   25.5811 H   0  0  0  0  0  0  0  0  0  0  0  0
  -19.4828   14.6619   28.2450 H   0  0  0  0  0  0  0  0  0  0  0  0
  1  2  1  0  0  0  0
  1  6  1  0  0  0  0
  2  3  2  0  0  0  0
  2  8  1  0  0  0  0
  1  4  1  0  0  0  0
  4 11  1  0  0  0  0
  4 12  1  0  0  0  0
  4 13  1  0  0  0  0
  5  7  1  0  0  0  0
  5 18  1  0  0  0  0
  6 14  1  0  0  0  0
  6 15  1  0  0  0  0
  6 16  1  0  0  0  0
  7 10  1  0  0  0  0
  8  9  1  0  0  0  0
  8 10  1  0  0  0  0
  5  9  1  0  0  0  0
  9 17  1  0  0  0  0
 10 19  1  0  0  0  0
M  END
>  <pdb_header>
CRYST1   99.370   99.372   99.366  90.00  90.00  90.00 P 1           1 


$$$$
