top5_centroid
  PyMOL2.3          3D                             0

 32 33  0  0  0  0  0  0  0  0999 V2000
  -18.0878   17.2904   26.4607 N   0  0  0  0  0  0  0  0  0  0  0  0
  -18.5401   18.4330   27.1694 C   0  0  0  0  0  0  0  0  0  0  0  0
  -19.4059   18.5034   28.0426 O   0  0  0  0  0  0  0  0  0  0  0  0
  -18.1029   20.7965   27.1009 C   0  0  0  0  0  0  0  0  0  0  0  0
  -23.8934   11.4416   25.8962 N   0  0  0  0  0  0  0  0  0  0  0  0
  -17.8221   19.4720   26.6782 O   0  0  0  0  0  0  0  0  0  0  0  0
  -18.6290   16.0050   26.5505 C   0  0  0  0  0  0  0  0  0  0  0  0
  -19.1797   15.4958   27.7486 C   0  0  0  0  0  0  0  0  0  0  0  0
  -19.5358   14.1641   28.0039 C   0  0  0  0  0  0  0  0  0  0  0  0
  -19.3152   13.2309   26.9225 C   0  0  0  0  0  0  0  0  0  0  0  0
  -19.7781   11.8883   27.1503 C   0  0  0  0  0  0  0  0  0  0  0  0
  -21.1855   11.7219   26.6993 C   0  0  0  0  0  0  0  0  0  0  0  0
  -22.2709   11.8848   27.6109 C   0  0  0  0  0  0  0  0  0  0  0  0
  -23.5601   11.7677   27.1592 C   0  0  0  0  0  0  0  0  0  0  0  0
  -22.9101   11.1682   25.0838 C   0  0  0  0  0  0  0  0  0  0  0  0
  -21.5650   11.3069   25.4339 C   0  0  0  0  0  0  0  0  0  0  0  0
  -18.6857   13.7206   25.7396 C   0  0  0  0  0  0  0  0  0  0  0  0
  -18.4616   15.0947   25.4851 C   0  0  0  0  0  0  0  0  0  0  0  0
  -17.6310   21.4757   26.3910 H   0  0  0  0  0  0  0  0  0  0  0  0
  -17.8738   21.0216   28.1497 H   0  0  0  0  0  0  0  0  0  0  0  0
  -19.1759   20.9821   26.9642 H   0  0  0  0  0  0  0  0  0  0  0  0
  -17.5635   17.4033   25.6005 H   0  0  0  0  0  0  0  0  0  0  0  0
  -19.1780   16.1383   28.6293 H   0  0  0  0  0  0  0  0  0  0  0  0
  -20.1114   13.9451   28.8954 H   0  0  0  0  0  0  0  0  0  0  0  0
  -19.7387   11.7184   28.2289 H   0  0  0  0  0  0  0  0  0  0  0  0
  -19.2285   11.1310   26.5711 H   0  0  0  0  0  0  0  0  0  0  0  0
  -22.0363   12.0490   28.6516 H   0  0  0  0  0  0  0  0  0  0  0  0
  -24.3612   12.0664   27.8412 H   0  0  0  0  0  0  0  0  0  0  0  0
  -23.1419   10.8749   24.0594 H   0  0  0  0  0  0  0  0  0  0  0  0
  -20.7812   11.0690   24.7315 H   0  0  0  0  0  0  0  0  0  0  0  0
  -18.5990   13.0747   24.8766 H   0  0  0  0  0  0  0  0  0  0  0  0
  -18.0043   15.4197   24.5472 H   0  0  0  0  0  0  0  0  0  0  0  0
  1  7  1  0  0  0  0
  1 22  1  0  0  0  0
  1  2  1  0  0  0  0
  2  3  2  0  0  0  0
  4  6  1  0  0  0  0
  4 19  1  0  0  0  0
  4 20  1  0  0  0  0
  4 21  1  0  0  0  0
  5 15  1  0  0  0  0
  2  6  1  0  0  0  0
  7  8  1  0  0  0  0
  7 18  1  0  0  0  0
  8  9  1  0  0  0  0
  8 23  1  0  0  0  0
  9 10  1  0  0  0  0
  9 24  1  0  0  0  0
 10 11  1  0  0  0  0
 11 12  1  0  0  0  0
 11 25  1  0  0  0  0
 11 26  1  0  0  0  0
 12 13  1  0  0  0  0
 12 16  1  0  0  0  0
 13 14  1  0  0  0  0
 13 27  1  0  0  0  0
  5 14  1  0  0  0  0
 14 28  1  0  0  0  0
 15 16  1  0  0  0  0
 15 29  1  0  0  0  0
 16 30  1  0  0  0  0
 10 17  1  0  0  0  0
 17 31  1  0  0  0  0
 17 18  1  0  0  0  0
 18 32  1  0  0  0  0
M  END
>  <pdb_header>
CRYST1   99.104   99.106   99.100  90.00  90.00  90.00 P 1           1 


$$$$
