top3_centroid
  PyMOL2.3          3D                             0

 23 23  0  0  0  0  0  0  0  0999 V2000
  -15.9561   15.2518   25.0227 N   0  0  0  0  0  0  0  0  0  0  0  0
  -17.0506   12.3542   26.2793 C   0  0  0  0  0  0  0  0  0  0  0  0
  -18.4565   14.3826   25.3711 O   0  0  0  0  0  0  0  0  0  0  0  0
  -16.6229   13.3559   23.7600 C   0  0  0  0  0  0  0  0  0  0  0  0
  -18.8152   12.0479   24.4217 O   0  0  0  0  0  0  0  0  0  0  0  0
  -15.7190   14.4209   23.9246 C   0  0  0  0  0  0  0  0  0  0  0  0
  -14.9660   16.3103   25.3866 C   0  0  0  0  0  0  0  0  0  0  0  0
  -14.6020   14.5368   23.0940 C   0  0  0  0  0  0  0  0  0  0  0  0
  -14.4893   13.6281   22.0336 C   0  0  0  0  0  0  0  0  0  0  0  0
  -15.3988   12.6324   21.7723 C   0  0  0  0  0  0  0  0  0  0  0  0
  -16.3952   12.3987   22.6630 C   0  0  0  0  0  0  0  0  0  0  0  0
  -17.9589   13.0820   24.8844 S   0  0  0  0  0  0  0  0  0  0  0  0
  -16.1433   12.9591   26.4534 H   0  0  0  0  0  0  0  0  0  0  0  0
  -16.6724   11.3470   26.0405 H   0  0  0  0  0  0  0  0  0  0  0  0
  -17.7019   12.2387   27.1519 H   0  0  0  0  0  0  0  0  0  0  0  0
  -16.8966   15.2924   25.3998 H   0  0  0  0  0  0  0  0  0  0  0  0
  -15.3718   16.5686   26.3750 H   0  0  0  0  0  0  0  0  0  0  0  0
  -15.0190   17.0452   24.5738 H   0  0  0  0  0  0  0  0  0  0  0  0
  -13.9744   15.8516   25.4741 H   0  0  0  0  0  0  0  0  0  0  0  0
  -13.9143   15.3664   23.2521 H   0  0  0  0  0  0  0  0  0  0  0  0
  -13.6228   13.7617   21.3884 H   0  0  0  0  0  0  0  0  0  0  0  0
  -15.2305   11.9130   20.9718 H   0  0  0  0  0  0  0  0  0  0  0  0
  -16.9205   11.4500   22.6408 H   0  0  0  0  0  0  0  0  0  0  0  0
  1  7  1  0  0  0  0
  1 16  1  0  0  0  0
  2 13  1  0  0  0  0
  2 14  1  0  0  0  0
  2 15  1  0  0  0  0
  3 12  1  0  0  0  0
  4  6  1  0  0  0  0
  4 11  1  0  0  0  0
  1  6  1  0  0  0  0
  6  8  1  0  0  0  0
  7 17  1  0  0  0  0
  7 18  1  0  0  0  0
  7 19  1  0  0  0  0
  8  9  1  0  0  0  0
  8 20  1  0  0  0  0
  9 10  1  0  0  0  0
  9 21  1  0  0  0  0
 10 11  1  0  0  0  0
 10 22  1  0  0  0  0
 11 23  1  0  0  0  0
  2 12  1  0  0  0  0
  4 12  1  0  0  0  0
  5 12  1  0  0  0  0
M  END
>  <pdb_header>
CRYST1   99.371   99.373   99.367  90.00  90.00  90.00 P 1           1 


$$$$
