top3_centroid
  PyMOL2.3          3D                             0

 28 29  0  0  0  0  0  0  0  0999 V2000
  -14.4012   17.5807   26.2292 N   0  0  0  0  0  0  0  0  0  0  0  0
  -15.2061   17.4622   27.2838 C   0  0  0  0  0  0  0  0  0  0  0  0
  -14.7377   17.5171   28.4559 O   0  0  0  0  0  0  0  0  0  0  0  0
  -16.6543   17.1669   26.9718 C   0  0  0  0  0  0  0  0  0  0  0  0
  -18.6759   16.0609   27.9706 N   0  0  0  0  0  0  0  0  0  0  0  0
  -17.2943   16.4541   28.1592 C   0  0  0  0  0  0  0  0  0  0  0  0
  -20.5975   14.8080   27.8121 N   0  0  0  0  0  0  0  0  0  0  0  0
  -19.2694   14.7919   27.9045 C   0  0  0  0  0  0  0  0  0  0  0  0
  -18.4868   13.5012   27.8574 C   0  0  0  0  0  0  0  0  0  0  0  0
  -20.8293   16.1326   27.5863 C   0  0  0  0  0  0  0  0  0  0  0  0
  -19.7215   16.8998   27.7482 C   0  0  0  0  0  0  0  0  0  0  0  0
  -19.7023   18.3285   27.7791 C   0  0  0  0  0  0  0  0  0  0  0  0
  -20.9161   18.9924   27.4444 C   0  0  0  0  0  0  0  0  0  0  0  0
  -22.0396   18.1498   27.0796 C   0  0  0  0  0  0  0  0  0  0  0  0
  -22.0142   16.7702   27.2286 C   0  0  0  0  0  0  0  0  0  0  0  0
  -13.4135   17.6340   26.4708 H   0  0  0  0  0  0  0  0  0  0  0  0
  -14.7060   17.3781   25.2895 H   0  0  0  0  0  0  0  0  0  0  0  0
  -17.0570   18.1625   26.7402 H   0  0  0  0  0  0  0  0  0  0  0  0
  -16.6384   16.5518   26.0704 H   0  0  0  0  0  0  0  0  0  0  0  0
  -17.3049   17.1393   29.0072 H   0  0  0  0  0  0  0  0  0  0  0  0
  -16.7572   15.5338   28.4185 H   0  0  0  0  0  0  0  0  0  0  0  0
  -18.9353   12.7510   27.1878 H   0  0  0  0  0  0  0  0  0  0  0  0
  -18.5238   13.0373   28.8479 H   0  0  0  0  0  0  0  0  0  0  0  0
  -17.4274   13.6552   27.6113 H   0  0  0  0  0  0  0  0  0  0  0  0
  -18.7463   18.7688   28.0342 H   0  0  0  0  0  0  0  0  0  0  0  0
  -20.9830   20.0731   27.3745 H   0  0  0  0  0  0  0  0  0  0  0  0
  -22.9130   18.5667   26.6061 H   0  0  0  0  0  0  0  0  0  0  0  0
  -22.8820   16.2157   26.8821 H   0  0  0  0  0  0  0  0  0  0  0  0
  1 16  1  0  0  0  0
  1 17  1  0  0  0  0
  1  2  1  0  0  0  0
  2  4  1  0  0  0  0
  2  3  2  0  0  0  0
  4  6  1  0  0  0  0
  4 18  1  0  0  0  0
  4 19  1  0  0  0  0
  5  8  1  0  0  0  0
  5 11  1  0  0  0  0
  5  6  1  0  0  0  0
  6 20  1  0  0  0  0
  6 21  1  0  0  0  0
  7 10  1  0  0  0  0
  7  8  1  0  0  0  0
  8  9  1  0  0  0  0
  9 22  1  0  0  0  0
  9 23  1  0  0  0  0
  9 24  1  0  0  0  0
 10 11  1  0  0  0  0
 10 15  1  0  0  0  0
 11 12  1  0  0  0  0
 12 13  1  0  0  0  0
 12 25  1  0  0  0  0
 13 14  1  0  0  0  0
 13 26  1  0  0  0  0
 14 15  1  0  0  0  0
 14 27  1  0  0  0  0
 15 28  1  0  0  0  0
M  END
>  <pdb_header>
CRYST1   99.204   99.206   99.200  90.00  90.00  90.00 P 1           1 


$$$$
