top2_centroid
  PyMOL2.3          3D                             0

 27 27  0  0  0  0  0  0  0  0999 V2000
  -15.8366   19.6350   29.5897 N   0  0  0  0  0  0  0  0  0  0  0  0
  -16.8330   18.9283   27.4918 C   0  0  0  0  0  0  0  0  0  0  0  0
  -14.8432   17.7835   28.9118 O   0  0  0  0  0  0  0  0  0  0  0  0
  -17.6241   17.8049   27.6610 C   0  0  0  0  0  0  0  0  0  0  0  0
  -21.7453   18.5062   27.4733 N   0  0  0  0  0  0  0  0  0  0  0  0
  -14.5639   20.2113   27.8577 O   0  0  0  0  0  0  0  0  0  0  0  0
  -18.9034   17.7204   27.1616 C   0  0  0  0  0  0  0  0  0  0  0  0
  -23.6303   18.2242   26.1814 O   0  0  0  0  0  0  0  0  0  0  0  0
  -19.4836   18.8643   26.6093 C   0  0  0  0  0  0  0  0  0  0  0  0
  -20.9360   18.7939   26.2588 C   0  0  0  0  0  0  0  0  0  0  0  0
  -23.1324   18.2235   27.3139 C   0  0  0  0  0  0  0  0  0  0  0  0
  -23.8217   17.5921   28.4825 C   0  0  0  0  0  0  0  0  0  0  0  0
  -18.7408   20.0567   26.4973 C   0  0  0  0  0  0  0  0  0  0  0  0
  -17.3575   20.0610   26.8740 C   0  0  0  0  0  0  0  0  0  0  0  0
  -15.2619   18.9942   28.2560 S   0  0  0  0  0  0  0  0  0  0  0  0
  -15.5739   20.5848   29.3239 H   0  0  0  0  0  0  0  0  0  0  0  0
  -14.9267   19.3421   29.9363 H   0  0  0  0  0  0  0  0  0  0  0  0
  -17.1673   16.8862   28.0348 H   0  0  0  0  0  0  0  0  0  0  0  0
  -19.5003   16.8237   27.2438 H   0  0  0  0  0  0  0  0  0  0  0  0
  -21.1655   17.9928   25.5387 H   0  0  0  0  0  0  0  0  0  0  0  0
  -21.3663   19.6612   25.7463 H   0  0  0  0  0  0  0  0  0  0  0  0
  -21.2792   18.4500   28.3672 H   0  0  0  0  0  0  0  0  0  0  0  0
  -23.3190   16.6890   28.8438 H   0  0  0  0  0  0  0  0  0  0  0  0
  -23.9065   18.3235   29.2916 H   0  0  0  0  0  0  0  0  0  0  0  0
  -24.8740   17.3841   28.2558 H   0  0  0  0  0  0  0  0  0  0  0  0
  -19.0625   21.0152   26.1020 H   0  0  0  0  0  0  0  0  0  0  0  0
  -16.7867   20.9541   26.6549 H   0  0  0  0  0  0  0  0  0  0  0  0
  1 16  1  0  0  0  0
  1 17  1  0  0  0  0
  2  4  1  0  0  0  0
  2 14  1  0  0  0  0
  3 15  1  0  0  0  0
  4  7  1  0  0  0  0
  4 18  1  0  0  0  0
  5 11  1  0  0  0  0
  5 22  1  0  0  0  0
  7  9  1  0  0  0  0
  7 19  1  0  0  0  0
  9 10  1  0  0  0  0
  5 10  1  0  0  0  0
 10 20  1  0  0  0  0
 10 21  1  0  0  0  0
  8 11  1  0  0  0  0
 11 12  1  0  0  0  0
 12 23  1  0  0  0  0
 12 24  1  0  0  0  0
 12 25  1  0  0  0  0
  9 13  1  0  0  0  0
 13 26  1  0  0  0  0
 13 14  1  0  0  0  0
 14 27  1  0  0  0  0
  1 15  1  0  0  0  0
  2 15  1  0  0  0  0
  6 15  1  0  0  0  0
M  END
>  <pdb_header>
CRYST1   99.207   99.209   99.203  90.00  90.00  90.00 P 1           1 


$$$$
