top5_centroid
  PyMOL2.3          3D                             0

 27 27  0  0  0  0  0  0  0  0999 V2000
  -21.3412   21.3624   28.3586 N   0  0  0  0  0  0  0  0  0  0  0  0
  -20.4468   19.6977   26.9179 C   0  0  0  0  0  0  0  0  0  0  0  0
  -21.1191   22.1855   26.1085 O   0  0  0  0  0  0  0  0  0  0  0  0
  -19.1122   19.8500   26.5518 C   0  0  0  0  0  0  0  0  0  0  0  0
  -18.0801   15.2939   27.8131 N   0  0  0  0  0  0  0  0  0  0  0  0
  -22.9985   20.5347   26.8330 O   0  0  0  0  0  0  0  0  0  0  0  0
  -18.2255   18.7544   26.5688 C   0  0  0  0  0  0  0  0  0  0  0  0
  -18.4644   13.8410   26.1938 O   0  0  0  0  0  0  0  0  0  0  0  0
  -18.7183   17.5345   26.9491 C   0  0  0  0  0  0  0  0  0  0  0  0
  -17.6618   16.4213   27.0114 C   0  0  0  0  0  0  0  0  0  0  0  0
  -18.3594   14.0758   27.3846 C   0  0  0  0  0  0  0  0  0  0  0  0
  -18.5258   13.0759   28.4554 C   0  0  0  0  0  0  0  0  0  0  0  0
  -19.9627   17.3666   27.4052 C   0  0  0  0  0  0  0  0  0  0  0  0
  -20.8533   18.4291   27.3302 C   0  0  0  0  0  0  0  0  0  0  0  0
  -21.5913   20.9644   26.8038 S   0  0  0  0  0  0  0  0  0  0  0  0
  -22.0630   22.0766   28.4401 H   0  0  0  0  0  0  0  0  0  0  0  0
  -20.5637   22.0127   28.2755 H   0  0  0  0  0  0  0  0  0  0  0  0
  -18.7626   20.8200   26.2301 H   0  0  0  0  0  0  0  0  0  0  0  0
  -17.2098   18.9309   26.2497 H   0  0  0  0  0  0  0  0  0  0  0  0
  -16.7858   16.8493   27.4982 H   0  0  0  0  0  0  0  0  0  0  0  0
  -17.4913   16.0670   25.9801 H   0  0  0  0  0  0  0  0  0  0  0  0
  -18.0981   15.4019   28.8260 H   0  0  0  0  0  0  0  0  0  0  0  0
  -17.9599   13.4335   29.3325 H   0  0  0  0  0  0  0  0  0  0  0  0
  -19.5757   12.9062   28.7280 H   0  0  0  0  0  0  0  0  0  0  0  0
  -18.0278   12.1113   28.2580 H   0  0  0  0  0  0  0  0  0  0  0  0
  -20.3504   16.4282   27.8011 H   0  0  0  0  0  0  0  0  0  0  0  0
  -21.8659   18.3392   27.6969 H   0  0  0  0  0  0  0  0  0  0  0  0
  1 16  1  0  0  0  0
  1 17  1  0  0  0  0
  2  4  1  0  0  0  0
  2 14  1  0  0  0  0
  3 15  1  0  0  0  0
  4  7  1  0  0  0  0
  4 18  1  0  0  0  0
  5 11  1  0  0  0  0
  5 22  1  0  0  0  0
  7  9  1  0  0  0  0
  7 19  1  0  0  0  0
  9 10  1  0  0  0  0
  5 10  1  0  0  0  0
 10 20  1  0  0  0  0
 10 21  1  0  0  0  0
  8 11  1  0  0  0  0
 11 12  1  0  0  0  0
 12 23  1  0  0  0  0
 12 24  1  0  0  0  0
 12 25  1  0  0  0  0
  9 13  1  0  0  0  0
 13 26  1  0  0  0  0
 13 14  1  0  0  0  0
 14 27  1  0  0  0  0
  1 15  1  0  0  0  0
  2 15  1  0  0  0  0
  6 15  1  0  0  0  0
M  END
>  <pdb_header>
CRYST1   99.207   99.209   99.203  90.00  90.00  90.00 P 1           1 


$$$$
