top4_centroid
  PyMOL2.3          3D                             0

 18 18  0  0  0  0  0  0  0  0999 V2000
  -17.6027   16.4513   27.5902 N   0  0  0  0  0  0  0  0  0  0  0  0
  -16.7337   17.3734   27.1253 C   0  0  0  0  0  0  0  0  0  0  0  0
  -15.5366   17.1374   26.8337 O   0  0  0  0  0  0  0  0  0  0  0  0
  -17.2541   15.1228   28.0712 C   0  0  0  0  0  0  0  0  0  0  0  0
  -18.7028   19.0462   27.0547 N   0  0  0  0  0  0  0  0  0  0  0  0
  -18.4640   14.3178   28.6788 C   0  0  0  0  0  0  0  0  0  0  0  0
  -18.8927   20.2233   26.6103 N   0  0  0  0  0  0  0  0  0  0  0  0
  -17.3205   18.7236   26.9649 C   0  0  0  0  0  0  0  0  0  0  0  0
  -17.7486   20.7566   26.3499 N   0  0  0  0  0  0  0  0  0  0  0  0
  -16.7298   19.9031   26.5471 C   0  0  0  0  0  0  0  0  0  0  0  0
  -18.5300   16.8080   27.8272 H   0  0  0  0  0  0  0  0  0  0  0  0
  -16.7534   14.5792   27.2555 H   0  0  0  0  0  0  0  0  0  0  0  0
  -16.4977   15.3186   28.8423 H   0  0  0  0  0  0  0  0  0  0  0  0
  -19.0472   13.9439   27.8316 H   0  0  0  0  0  0  0  0  0  0  0  0
  -18.2252   13.3910   29.2128 H   0  0  0  0  0  0  0  0  0  0  0  0
  -19.0980   15.0045   29.2665 H   0  0  0  0  0  0  0  0  0  0  0  0
  -17.6560   21.7002   25.9833 H   0  0  0  0  0  0  0  0  0  0  0  0
  -15.6952   20.0586   26.2455 H   0  0  0  0  0  0  0  0  0  0  0  0
  1  2  1  0  0  0  0
  1 11  1  0  0  0  0
  2  3  2  0  0  0  0
  2  8  1  0  0  0  0
  1  4  1  0  0  0  0
  4 12  1  0  0  0  0
  4 13  1  0  0  0  0
  5  7  1  0  0  0  0
  4  6  1  0  0  0  0
  6 14  1  0  0  0  0
  6 15  1  0  0  0  0
  6 16  1  0  0  0  0
  7  9  1  0  0  0  0
  5  8  1  0  0  0  0
  8 10  1  0  0  0  0
  9 10  1  0  0  0  0
  9 17  1  0  0  0  0
 10 18  1  0  0  0  0
M  END
>  <pdb_header>
CRYST1   99.354   99.356   99.350  90.00  90.00  90.00 P 1           1 


$$$$
