
     RDKit          3D

 29 31  0  0  0  0  0  0  0  0999 V2000
  -15.0515   16.7842   27.8918 O   0  0  0  0  0  0  0  0  0  0  0  0
  -15.0027   17.1313   26.7330 C   0  0  0  0  0  0  0  0  0  0  0  0
  -15.7655   16.5377   25.7741 N   0  0  0  0  0  0  0  0  0  0  0  0
  -15.6437   16.8796   24.8171 H   0  0  0  0  0  0  0  0  0  0  0  0
  -16.6897   15.5253   25.8840 C   0  0  0  0  0  0  0  0  0  0  0  0
  -17.3289   15.0268   27.4204 S   0  0  0  0  0  0  0  0  0  0  0  0
  -18.2890   13.8580   26.5817 C   0  0  0  0  0  0  0  0  0  0  0  0
  -18.0418   13.9476   25.2125 C   0  0  0  0  0  0  0  0  0  0  0  0
  -17.1194   14.9122   24.8263 N   0  0  0  0  0  0  0  0  0  0  0  0
  -18.7239   13.0819   24.3415 C   0  0  0  0  0  0  0  0  0  0  0  0
  -18.5396   13.1447   23.3012 H   0  0  0  0  0  0  0  0  0  0  0  0
  -19.6260   12.1571   24.8475 C   0  0  0  0  0  0  0  0  0  0  0  0
  -20.1383   11.5069   24.1876 H   0  0  0  0  0  0  0  0  0  0  0  0
  -19.8574   12.0898   26.2399 C   0  0  0  0  0  0  0  0  0  0  0  0
  -20.7245   11.2206   26.8537 O   0  0  0  0  0  0  0  0  0  0  0  0
  -21.8618   11.7806   27.4999 C   0  0  0  0  0  0  0  0  0  0  0  0
  -22.5084   12.2971   26.7825 H   0  0  0  0  0  0  0  0  0  0  0  0
  -22.4383   10.9582   27.9341 H   0  0  0  0  0  0  0  0  0  0  0  0
  -21.5641   12.4458   28.3171 H   0  0  0  0  0  0  0  0  0  0  0  0
  -19.1966   12.9327   27.1145 C   0  0  0  0  0  0  0  0  0  0  0  0
  -19.3705   12.8791   28.1574 H   0  0  0  0  0  0  0  0  0  0  0  0
  -14.1299   18.2336   26.2729 C   0  0  0  0  0  0  0  0  0  0  0  0
  -13.5520   17.9876   25.3862 H   0  0  0  0  0  0  0  0  0  0  0  0
  -13.5115   19.1994   27.2559 C   0  0  0  0  0  0  0  0  0  0  0  0
  -13.7377   19.1023   28.3118 H   0  0  0  0  0  0  0  0  0  0  0  0
  -12.5116   19.5612   27.0490 H   0  0  0  0  0  0  0  0  0  0  0  0
  -14.6206   19.6587   26.3562 C   0  0  0  0  0  0  0  0  0  0  0  0
  -14.3728   20.3268   25.5403 H   0  0  0  0  0  0  0  0  0  0  0  0
  -15.5933   19.8435   26.7998 H   0  0  0  0  0  0  0  0  0  0  0  0
  1  2  2  0
  2  3  1  0
  2 22  1  0
  3  4  1  0
  3  5  1  0
  5  6  1  0
  5  9  2  0
  6  7  1  0
  7  8  1  0
  7 20  2  0
  8  9  1  0
  8 10  2  0
 10 11  1  0
 10 12  1  0
 12 13  1  0
 12 14  2  0
 14 15  1  0
 14 20  1  0
 15 16  1  0
 16 17  1  0
 16 18  1  0
 16 19  1  0
 20 21  1  0
 22 23  1  0
 22 24  1  0
 22 27  1  0
 24 25  1  0
 24 26  1  0
 24 27  1  0
 27 28  1  0
 27 29  1  0
M  END
$$$$
