top3_centroid
  PyMOL2.3          3D                             0

 24 25  0  0  0  0  0  0  0  0999 V2000
  -19.0891   15.9674   26.8693 N   0  0  0  0  0  0  0  0  0  0  0  0
  -19.8865   18.2199   26.9026 C   0  0  0  0  0  0  0  0  0  0  0  0
  -18.7992   17.3006   26.9476 C   0  0  0  0  0  0  0  0  0  0  0  0
  -17.8585   13.7274   24.9635 N   0  0  0  0  0  0  0  0  0  0  0  0
  -18.2832   14.7981   27.3400 C   0  0  0  0  0  0  0  0  0  0  0  0
  -17.8362   12.3818   24.4384 N   0  0  0  0  0  0  0  0  0  0  0  0
  -18.1478   13.6854   26.3486 C   0  0  0  0  0  0  0  0  0  0  0  0
  -18.3203   11.6639   25.4355 C   0  0  0  0  0  0  0  0  0  0  0  0
  -18.5785   12.4555   26.5743 C   0  0  0  0  0  0  0  0  0  0  0  0
  -17.4740   17.8719   26.7168 C   0  0  0  0  0  0  0  0  0  0  0  0
  -17.2236   19.2274   26.7765 C   0  0  0  0  0  0  0  0  0  0  0  0
  -18.3094   20.1301   26.8092 C   0  0  0  0  0  0  0  0  0  0  0  0
  -19.5919   19.6205   26.8071 C   0  0  0  0  0  0  0  0  0  0  0  0
  -21.1487   17.7742   27.0279 F   0  0  0  0  0  0  0  0  0  0  0  0
  -20.0161   15.9084   27.2699 H   0  0  0  0  0  0  0  0  0  0  0  0
  -17.2405   15.0700   27.5099 H   0  0  0  0  0  0  0  0  0  0  0  0
  -18.6766   14.4013   28.2846 H   0  0  0  0  0  0  0  0  0  0  0  0
  -17.5389   14.5249   24.4289 H   0  0  0  0  0  0  0  0  0  0  0  0
  -18.7818   10.6854   25.3841 H   0  0  0  0  0  0  0  0  0  0  0  0
  -19.0525   12.0755   27.4732 H   0  0  0  0  0  0  0  0  0  0  0  0
  -16.6044   17.2176   26.7309 H   0  0  0  0  0  0  0  0  0  0  0  0
  -16.1980   19.5787   26.8480 H   0  0  0  0  0  0  0  0  0  0  0  0
  -18.0789   21.1917   26.6818 H   0  0  0  0  0  0  0  0  0  0  0  0
  -20.4262   20.2836   26.6113 H   0  0  0  0  0  0  0  0  0  0  0  0
  1  3  1  0  0  0  0
  1 15  1  0  0  0  0
  2 13  1  0  0  0  0
  2 14  1  0  0  0  0
  2  3  1  0  0  0  0
  3 10  1  0  0  0  0
  4  7  1  0  0  0  0
  4 18  1  0  0  0  0
  1  5  1  0  0  0  0
  5 16  1  0  0  0  0
  5 17  1  0  0  0  0
  4  6  1  0  0  0  0
  5  7  1  0  0  0  0
  6  8  1  0  0  0  0
  8  9  1  0  0  0  0
  8 19  1  0  0  0  0
  7  9  1  0  0  0  0
  9 20  1  0  0  0  0
 10 21  1  0  0  0  0
 10 11  1  0  0  0  0
 11 22  1  0  0  0  0
 11 12  1  0  0  0  0
 12 23  1  0  0  0  0
 12 13  1  0  0  0  0
 13 24  1  0  0  0  0
M  END
>  <pdb_header>
CRYST1   99.140   99.142   99.136  90.00  90.00  90.00 P 1           1 


$$$$
