top4_centroid
  PyMOL2.3          3D                             0

 24 24  0  0  0  0  0  0  0  0999 V2000
  -18.6075   13.7978   27.5809 N   0  0  0  0  0  0  0  0  0  0  0  0
  -19.0854   13.0859   25.1710 C   0  0  0  0  0  0  0  0  0  0  0  0
  -19.9492   12.0256   25.5318 O   0  0  0  0  0  0  0  0  0  0  0  0
  -18.1007   13.1629   26.3498 C   0  0  0  0  0  0  0  0  0  0  0  0
  -20.0678   15.6637   27.9306 N   0  0  0  0  0  0  0  0  0  0  0  0
  -18.5104   13.0538   28.8212 C   0  0  0  0  0  0  0  0  0  0  0  0
  -18.7838   15.1334   27.5849 C   0  0  0  0  0  0  0  0  0  0  0  0
  -20.2077   17.0007   28.0793 C   0  0  0  0  0  0  0  0  0  0  0  0
  -19.1422   17.8428   27.8094 C   0  0  0  0  0  0  0  0  0  0  0  0
  -17.8524   17.3710   27.3778 C   0  0  0  0  0  0  0  0  0  0  0  0
  -17.6968   15.9738   27.2944 C   0  0  0  0  0  0  0  0  0  0  0  0
  -20.2383   12.2447   26.4366 H   0  0  0  0  0  0  0  0  0  0  0  0
  -18.5873   12.6799   24.2878 H   0  0  0  0  0  0  0  0  0  0  0  0
  -19.5534   14.0123   24.8214 H   0  0  0  0  0  0  0  0  0  0  0  0
  -17.1369   13.6016   26.0571 H   0  0  0  0  0  0  0  0  0  0  0  0
  -17.7357   12.1528   26.5761 H   0  0  0  0  0  0  0  0  0  0  0  0
  -18.2484   12.0019   28.7127 H   0  0  0  0  0  0  0  0  0  0  0  0
  -19.5381   13.0722   29.2357 H   0  0  0  0  0  0  0  0  0  0  0  0
  -17.9354   13.6673   29.5206 H   0  0  0  0  0  0  0  0  0  0  0  0
  -20.8276   15.0500   28.1940 H   0  0  0  0  0  0  0  0  0  0  0  0
  -21.2354   17.2673   28.3101 H   0  0  0  0  0  0  0  0  0  0  0  0
  -19.2708   18.9197   27.9008 H   0  0  0  0  0  0  0  0  0  0  0  0
  -17.1152   18.0399   26.9349 H   0  0  0  0  0  0  0  0  0  0  0  0
  -16.7545   15.5653   26.9495 H   0  0  0  0  0  0  0  0  0  0  0  0
  1  6  1  0  0  0  0
  1  7  1  0  0  0  0
  2  4  1  0  0  0  0
  2 13  1  0  0  0  0
  2 14  1  0  0  0  0
  2  3  2  0  0  0  0
  3 12  1  0  0  0  0
  1  4  1  0  0  0  0
  4 15  1  0  0  0  0
  4 16  1  0  0  0  0
  5  8  1  0  0  0  0
  5 20  1  0  0  0  0
  6 17  1  0  0  0  0
  6 18  1  0  0  0  0
  6 19  1  0  0  0  0
  5  7  1  0  0  0  0
  7 11  1  0  0  0  0
  8  9  1  0  0  0  0
  8 21  1  0  0  0  0
  9 10  1  0  0  0  0
  9 22  1  0  0  0  0
 10 11  1  0  0  0  0
 10 23  1  0  0  0  0
 11 24  1  0  0  0  0
M  END
>  <pdb_header>
CRYST1   99.158   99.160   99.154  90.00  90.00  90.00 P 1           1 


$$$$
