
     RDKit          3D

 29 31  0  0  0  0  0  0  0  0999 V2000
  -20.2496   14.6834   27.6105 O   0  0  0  0  0  0  0  0  0  0  0  0
  -19.4766   13.8184   27.2641 C   0  0  0  0  0  0  0  0  0  0  0  0
  -18.2532   14.1158   26.7458 N   0  0  0  0  0  0  0  0  0  0  0  0
  -17.6737   13.3225   26.4589 H   0  0  0  0  0  0  0  0  0  0  0  0
  -17.6586   15.3376   26.5340 C   0  0  0  0  0  0  0  0  0  0  0  0
  -18.5190   16.8300   26.7582 S   0  0  0  0  0  0  0  0  0  0  0  0
  -17.0749   17.6683   26.3077 C   0  0  0  0  0  0  0  0  0  0  0  0
  -16.0681   16.7454   26.0274 C   0  0  0  0  0  0  0  0  0  0  0  0
  -16.4191   15.4079   26.1627 N   0  0  0  0  0  0  0  0  0  0  0  0
  -14.8032   17.2175   25.6398 C   0  0  0  0  0  0  0  0  0  0  0  0
  -14.0353   16.5216   25.4248 H   0  0  0  0  0  0  0  0  0  0  0  0
  -14.5718   18.5820   25.5407 C   0  0  0  0  0  0  0  0  0  0  0  0
  -13.6170   18.9336   25.2487 H   0  0  0  0  0  0  0  0  0  0  0  0
  -15.6109   19.4942   25.8322 C   0  0  0  0  0  0  0  0  0  0  0  0
  -15.4999   20.8611   25.7710 O   0  0  0  0  0  0  0  0  0  0  0  0
  -15.5164   21.5731   27.0028 C   0  0  0  0  0  0  0  0  0  0  0  0
  -14.6654   21.2918   27.6322 H   0  0  0  0  0  0  0  0  0  0  0  0
  -15.4221   22.6389   26.7741 H   0  0  0  0  0  0  0  0  0  0  0  0
  -16.4652   21.4288   27.5299 H   0  0  0  0  0  0  0  0  0  0  0  0
  -16.8631   19.0506   26.2156 C   0  0  0  0  0  0  0  0  0  0  0  0
  -17.6405   19.7361   26.4317 H   0  0  0  0  0  0  0  0  0  0  0  0
  -19.7903   12.3785   27.3933 C   0  0  0  0  0  0  0  0  0  0  0  0
  -19.3503   11.9164   28.2730 H   0  0  0  0  0  0  0  0  0  0  0  0
  -19.9717   11.5082   26.1722 C   0  0  0  0  0  0  0  0  0  0  0  0
  -19.9032   11.9536   25.1860 H   0  0  0  0  0  0  0  0  0  0  0  0
  -19.6162   10.4862   26.2218 H   0  0  0  0  0  0  0  0  0  0  0  0
  -21.1609   11.8757   27.0097 C   0  0  0  0  0  0  0  0  0  0  0  0
  -21.6078   11.1061   27.6274 H   0  0  0  0  0  0  0  0  0  0  0  0
  -21.8734   12.5840   26.6002 H   0  0  0  0  0  0  0  0  0  0  0  0
  1  2  2  0
  2  3  1  0
  2 22  1  0
  3  4  1  0
  3  5  1  0
  5  6  1  0
  5  9  2  0
  6  7  1  0
  7  8  1  0
  7 20  2  0
  8  9  1  0
  8 10  2  0
 10 11  1  0
 10 12  1  0
 12 13  1  0
 12 14  2  0
 14 15  1  0
 14 20  1  0
 15 16  1  0
 16 17  1  0
 16 18  1  0
 16 19  1  0
 20 21  1  0
 22 23  1  0
 22 24  1  0
 22 27  1  0
 24 25  1  0
 24 26  1  0
 24 27  1  0
 27 28  1  0
 27 29  1  0
M  END
$$$$
