top2_centroid
  PyMOL2.3          3D                             0

 23 24  0  0  0  0  0  0  0  0999 V2000
  -15.9535   22.2381   26.4428 N   0  0  0  0  0  0  0  0  0  0  0  0
  -16.1981   20.6901   26.2334 C   0  0  0  0  0  0  0  0  0  0  0  0
  -17.6203   20.1000   26.4108 C   0  0  0  0  0  0  0  0  0  0  0  0
  -17.9612   18.8558   26.7178 N   0  0  0  0  0  0  0  0  0  0  0  0
  -19.2913   18.7486   26.8962 C   0  0  0  0  0  0  0  0  0  0  0  0
  -19.8301   19.9469   26.6507 N   0  0  0  0  0  0  0  0  0  0  0  0
  -19.9697   17.5218   27.1597 C   0  0  0  0  0  0  0  0  0  0  0  0
  -18.7531   20.8319   26.3230 N   0  0  0  0  0  0  0  0  0  0  0  0
  -19.1926   16.4220   27.4792 C   0  0  0  0  0  0  0  0  0  0  0  0
  -17.7397   16.5752   27.5033 C   0  0  0  0  0  0  0  0  0  0  0  0
  -17.1597   17.8043   27.1897 C   0  0  0  0  0  0  0  0  0  0  0  0
  -14.4488   22.5582   26.4902 C   0  0  0  0  0  0  0  0  0  0  0  0
  -16.3485   22.7109   25.6106 H   0  0  0  0  0  0  0  0  0  0  0  0
  -16.4621   22.5777   27.2699 H   0  0  0  0  0  0  0  0  0  0  0  0
  -15.8682   20.5024   25.2041 H   0  0  0  0  0  0  0  0  0  0  0  0
  -15.5031   20.2865   26.9741 H   0  0  0  0  0  0  0  0  0  0  0  0
  -21.0457   17.4289   27.2439 H   0  0  0  0  0  0  0  0  0  0  0  0
  -19.6086   15.4471   27.7145 H   0  0  0  0  0  0  0  0  0  0  0  0
  -17.0323   15.8216   27.8085 H   0  0  0  0  0  0  0  0  0  0  0  0
  -16.1080   18.0205   27.0408 H   0  0  0  0  0  0  0  0  0  0  0  0
  -14.3586   23.6460   26.5309 H   0  0  0  0  0  0  0  0  0  0  0  0
  -14.0410   22.1671   25.5527 H   0  0  0  0  0  0  0  0  0  0  0  0
  -14.0247   22.1690   27.4140 H   0  0  0  0  0  0  0  0  0  0  0  0
  1  2  1  0  0  0  0
  1 13  1  0  0  0  0
  1 14  1  0  0  0  0
  2  3  1  0  0  0  0
  2 15  1  0  0  0  0
  2 16  1  0  0  0  0
  3  4  1  0  0  0  0
  3  8  1  0  0  0  0
  4  5  1  0  0  0  0
  4 11  1  0  0  0  0
  5  7  1  0  0  0  0
  5  6  1  0  0  0  0
  7  9  1  0  0  0  0
  7 17  1  0  0  0  0
  6  8  1  0  0  0  0
  9 10  1  0  0  0  0
  9 18  1  0  0  0  0
 10 11  1  0  0  0  0
 10 19  1  0  0  0  0
 11 20  1  0  0  0  0
  1 12  1  0  0  0  0
 12 21  1  0  0  0  0
 12 22  1  0  0  0  0
 12 23  1  0  0  0  0
M  END
>  <pdb_header>
CRYST1   99.178   99.180   99.174  90.00  90.00  90.00 P 1           1 


$$$$
