top3_centroid
  PyMOL2.3          3D                             0

 19 19  0  0  0  0  0  0  0  0999 V2000
  -18.9358   15.5725   28.1902 N   0  0  0  0  0  0  0  0  0  0  0  0
  -19.3658   17.5827   27.5396 C   0  0  0  0  0  0  0  0  0  0  0  0
  -19.0703   12.9950   26.6526 O   0  0  0  0  0  0  0  0  0  0  0  0
  -18.4167   16.6817   27.5451 C   0  0  0  0  0  0  0  0  0  0  0  0
  -20.1566   15.8148   28.6996 N   0  0  0  0  0  0  0  0  0  0  0  0
  -18.2789   14.3656   28.4956 C   0  0  0  0  0  0  0  0  0  0  0  0
  -17.8041   13.4552   27.3393 C   0  0  0  0  0  0  0  0  0  0  0  0
  -19.3237   13.6868   25.4659 C   0  0  0  0  0  0  0  0  0  0  0  0
  -20.4691   16.9739   28.1572 C   0  0  0  0  0  0  0  0  0  0  0  0
  -19.3494   19.2968   26.6049 B   0  0  0  0  0  0  0  0  0  0  0  0
  -17.4381   16.6609   27.0966 H   0  0  0  0  0  0  0  0  0  0  0  0
  -17.3924   14.6847   29.0526 H   0  0  0  0  0  0  0  0  0  0  0  0
  -18.9477   13.7318   29.0938 H   0  0  0  0  0  0  0  0  0  0  0  0
  -17.2433   12.5845   27.7011 H   0  0  0  0  0  0  0  0  0  0  0  0
  -17.1060   13.9787   26.6811 H   0  0  0  0  0  0  0  0  0  0  0  0
  -20.3803   13.4118   25.3883 H   0  0  0  0  0  0  0  0  0  0  0  0
  -18.6962   13.3044   24.6517 H   0  0  0  0  0  0  0  0  0  0  0  0
  -19.2847   14.7670   25.6900 H   0  0  0  0  0  0  0  0  0  0  0  0
  -21.5011   17.3058   28.1371 H   0  0  0  0  0  0  0  0  0  0  0  0
  1  6  1  0  0  0  0
  2  9  1  0  0  0  0
  2 10  1  0  0  0  0
  3  8  1  0  0  0  0
  1  4  1  0  0  0  0
  2  4  1  0  0  0  0
  4 11  1  0  0  0  0
  1  5  1  0  0  0  0
  6  7  1  0  0  0  0
  6 12  1  0  0  0  0
  6 13  1  0  0  0  0
  3  7  1  0  0  0  0
  7 14  1  0  0  0  0
  7 15  1  0  0  0  0
  8 16  1  0  0  0  0
  8 17  1  0  0  0  0
  8 18  1  0  0  0  0
  5  9  1  0  0  0  0
  9 19  1  0  0  0  0
M  END
>  <pdb_header>
CRYST1   99.358   99.360   99.354  90.00  90.00  90.00 P 1           1 


$$$$
