top3_centroid
  PyMOL2.3          3D                             0

 26 26  0  0  0  0  0  0  0  0999 V2000
  -19.3652   14.9290   28.1451 N   0  0  0  0  0  0  0  0  0  0  0  0
  -19.0971   13.0635   26.4564 C   0  0  0  0  0  0  0  0  0  0  0  0
  -16.9297   16.6531   28.5829 O   0  0  0  0  0  0  0  0  0  0  0  0
  -18.7154   14.3310   27.0991 C   0  0  0  0  0  0  0  0  0  0  0  0
  -17.7253   15.0335   26.6002 N   0  0  0  0  0  0  0  0  0  0  0  0
  -18.8108   15.3235   29.4777 C   0  0  0  0  0  0  0  0  0  0  0  0
  -17.3386   15.6543   29.5304 C   0  0  0  0  0  0  0  0  0  0  0  0
  -18.8891   14.1429   30.4866 C   0  0  0  0  0  0  0  0  0  0  0  0
  -20.6297   15.5617   27.8007 C   0  0  0  0  0  0  0  0  0  0  0  0
  -16.9725   14.5126   25.6273 C   0  0  0  0  0  0  0  0  0  0  0  0
  -17.3629   13.3088   24.9672 C   0  0  0  0  0  0  0  0  0  0  0  0
  -18.4788   12.6691   25.2697 C   0  0  0  0  0  0  0  0  0  0  0  0
  -20.1888   12.4183   26.8722 F   0  0  0  0  0  0  0  0  0  0  0  0
  -16.8386   14.7066   29.2936 H   0  0  0  0  0  0  0  0  0  0  0  0
  -17.0096   15.9992   30.5201 H   0  0  0  0  0  0  0  0  0  0  0  0
  -17.2516   16.1378   27.8170 H   0  0  0  0  0  0  0  0  0  0  0  0
  -18.1950   13.3418   30.2208 H   0  0  0  0  0  0  0  0  0  0  0  0
  -19.8982   13.6985   30.5531 H   0  0  0  0  0  0  0  0  0  0  0  0
  -18.5750   14.5286   31.4611 H   0  0  0  0  0  0  0  0  0  0  0  0
  -21.3646   14.8893   27.3237 H   0  0  0  0  0  0  0  0  0  0  0  0
  -20.4124   16.3291   27.0401 H   0  0  0  0  0  0  0  0  0  0  0  0
  -21.0854   15.9882   28.7058 H   0  0  0  0  0  0  0  0  0  0  0  0
  -16.1413   14.9983   25.1218 H   0  0  0  0  0  0  0  0  0  0  0  0
  -16.9307   13.0285   24.0170 H   0  0  0  0  0  0  0  0  0  0  0  0
  -18.8609   11.7552   24.8111 H   0  0  0  0  0  0  0  0  0  0  0  0
  -19.3920   16.1638   29.8639 H   0  0  0  0  0  0  0  0  0  0  0  0
  1  4  1  0  0  0  0
  1  9  1  0  0  0  0
  2 12  1  0  0  0  0
  2 13  1  0  0  0  0
  3  7  1  0  0  0  0
  3 16  1  0  0  0  0
  2  4  1  0  0  0  0
  4  5  1  0  0  0  0
  1  6  1  0  0  0  0
  6  8  1  0  0  0  0
  6 26  1  0  0  0  0
  6  7  1  0  0  0  0
  7 14  1  0  0  0  0
  7 15  1  0  0  0  0
  8 17  1  0  0  0  0
  8 18  1  0  0  0  0
  8 19  1  0  0  0  0
  9 20  1  0  0  0  0
  9 21  1  0  0  0  0
  9 22  1  0  0  0  0
  5 10  1  0  0  0  0
 10 23  1  0  0  0  0
 10 11  1  0  0  0  0
 11 24  1  0  0  0  0
 11 12  1  0  0  0  0
 12 25  1  0  0  0  0
M  END
>  <pdb_header>
CRYST1   99.332   99.334   99.328  90.00  90.00  90.00 P 1           1 


$$$$
