top2_centroid
  PyMOL2.3          3D                             0

 19 19  0  0  0  0  0  0  0  0999 V2000
  -18.3053   14.5165   25.7498 N   0  0  0  0  0  0  0  0  0  0  0  0
  -18.7566   15.8409   27.4259 C   0  0  0  0  0  0  0  0  0  0  0  0
  -17.3284   11.8630   23.1562 O   0  0  0  0  0  0  0  0  0  0  0  0
  -17.8082   15.5886   26.4902 C   0  0  0  0  0  0  0  0  0  0  0  0
  -19.4767   14.0574   26.2045 N   0  0  0  0  0  0  0  0  0  0  0  0
  -17.6931   13.8995   24.5518 C   0  0  0  0  0  0  0  0  0  0  0  0
  -17.7488   12.3418   24.4959 C   0  0  0  0  0  0  0  0  0  0  0  0
  -15.9847   11.4454   22.9860 C   0  0  0  0  0  0  0  0  0  0  0  0
  -19.8224   14.9185   27.2037 C   0  0  0  0  0  0  0  0  0  0  0  0
  -18.7603   17.2909   28.6183 B   0  0  0  0  0  0  0  0  0  0  0  0
  -16.8672   16.0442   26.1824 H   0  0  0  0  0  0  0  0  0  0  0  0
  -18.2519   14.1437   23.6374 H   0  0  0  0  0  0  0  0  0  0  0  0
  -16.7014   14.3121   24.3170 H   0  0  0  0  0  0  0  0  0  0  0  0
  -18.7960   12.0579   24.6843 H   0  0  0  0  0  0  0  0  0  0  0  0
  -17.1504   11.8882   25.2863 H   0  0  0  0  0  0  0  0  0  0  0  0
  -15.7388   11.2780   21.9277 H   0  0  0  0  0  0  0  0  0  0  0  0
  -15.7701   10.4730   23.4406 H   0  0  0  0  0  0  0  0  0  0  0  0
  -15.3408   12.2750   23.2993 H   0  0  0  0  0  0  0  0  0  0  0  0
  -20.7682   14.7139   27.6841 H   0  0  0  0  0  0  0  0  0  0  0  0
  1  6  1  0  0  0  0
  2  9  1  0  0  0  0
  2 10  1  0  0  0  0
  3  8  1  0  0  0  0
  1  4  1  0  0  0  0
  2  4  1  0  0  0  0
  4 11  1  0  0  0  0
  1  5  1  0  0  0  0
  6  7  1  0  0  0  0
  6 12  1  0  0  0  0
  6 13  1  0  0  0  0
  3  7  1  0  0  0  0
  7 14  1  0  0  0  0
  7 15  1  0  0  0  0
  8 16  1  0  0  0  0
  8 17  1  0  0  0  0
  8 18  1  0  0  0  0
  5  9  1  0  0  0  0
  9 19  1  0  0  0  0
M  END
>  <pdb_header>
CRYST1   99.358   99.360   99.354  90.00  90.00  90.00 P 1           1 


$$$$
