top1_centroid
  PyMOL2.3          3D                             0

 19 19  0  0  0  0  0  0  0  0999 V2000
  -17.5884   13.2184   24.6974 N   0  0  0  0  0  0  0  0  0  0  0  0
  -15.6542   12.9718   23.7188 C   0  0  0  0  0  0  0  0  0  0  0  0
  -17.4255   14.6634   27.4213 O   0  0  0  0  0  0  0  0  0  0  0  0
  -16.4271   13.8281   24.4989 C   0  0  0  0  0  0  0  0  0  0  0  0
  -17.6275   12.0267   23.9573 N   0  0  0  0  0  0  0  0  0  0  0  0
  -18.7006   13.6246   25.5872 C   0  0  0  0  0  0  0  0  0  0  0  0
  -18.4122   14.9252   26.4070 C   0  0  0  0  0  0  0  0  0  0  0  0
  -17.8594   14.6135   28.8714 C   0  0  0  0  0  0  0  0  0  0  0  0
  -16.4236   11.8430   23.4332 C   0  0  0  0  0  0  0  0  0  0  0  0
  -13.9299   13.3082   22.9575 B   0  0  0  0  0  0  0  0  0  0  0  0
  -16.1439   14.7371   25.0145 H   0  0  0  0  0  0  0  0  0  0  0  0
  -19.6204   13.6201   25.0017 H   0  0  0  0  0  0  0  0  0  0  0  0
  -18.7508   12.8632   26.3837 H   0  0  0  0  0  0  0  0  0  0  0  0
  -19.3272   15.3755   26.8056 H   0  0  0  0  0  0  0  0  0  0  0  0
  -18.0464   15.5971   25.6225 H   0  0  0  0  0  0  0  0  0  0  0  0
  -18.2284   15.5898   29.2075 H   0  0  0  0  0  0  0  0  0  0  0  0
  -17.0998   14.2966   29.5938 H   0  0  0  0  0  0  0  0  0  0  0  0
  -18.6688   13.8710   28.9062 H   0  0  0  0  0  0  0  0  0  0  0  0
  -16.1397   10.9352   22.9128 H   0  0  0  0  0  0  0  0  0  0  0  0
  1  6  1  0  0  0  0
  2  9  1  0  0  0  0
  2 10  1  0  0  0  0
  3  8  1  0  0  0  0
  1  4  1  0  0  0  0
  2  4  1  0  0  0  0
  4 11  1  0  0  0  0
  1  5  1  0  0  0  0
  6  7  1  0  0  0  0
  6 12  1  0  0  0  0
  6 13  1  0  0  0  0
  3  7  1  0  0  0  0
  7 14  1  0  0  0  0
  7 15  1  0  0  0  0
  8 16  1  0  0  0  0
  8 17  1  0  0  0  0
  8 18  1  0  0  0  0
  5  9  1  0  0  0  0
  9 19  1  0  0  0  0
M  END
>  <pdb_header>
CRYST1   99.400   99.402   99.396  90.00  90.00  90.00 P 1           1 


$$$$
