top3_centroid
  PyMOL2.3          3D                             0

 19 19  0  0  0  0  0  0  0  0999 V2000
  -18.8008   14.0685   29.2939 N   0  0  0  0  0  0  0  0  0  0  0  0
  -18.6742   15.0975   28.4366 C   0  0  0  0  0  0  0  0  0  0  0  0
  -19.0819   16.2394   28.7907 O   0  0  0  0  0  0  0  0  0  0  0  0
  -19.8670   14.1856   30.3868 C   0  0  0  0  0  0  0  0  0  0  0  0
  -17.3673   14.9722   25.1592 N   0  0  0  0  0  0  0  0  0  0  0  0
  -17.8574   12.8704   29.5236 C   0  0  0  0  0  0  0  0  0  0  0  0
  -17.6102   13.6697   25.3300 N   0  0  0  0  0  0  0  0  0  0  0  0
  -18.1224   14.7963   27.1745 C   0  0  0  0  0  0  0  0  0  0  0  0
  -17.6694   15.7191   26.2949 C   0  0  0  0  0  0  0  0  0  0  0  0
  -18.1517   13.5293   26.5544 C   0  0  0  0  0  0  0  0  0  0  0  0
  -20.7608   13.5847   30.1777 H   0  0  0  0  0  0  0  0  0  0  0  0
  -20.3149   15.1613   30.5734 H   0  0  0  0  0  0  0  0  0  0  0  0
  -19.4339   13.8200   31.3266 H   0  0  0  0  0  0  0  0  0  0  0  0
  -16.9170   13.0622   29.0134 H   0  0  0  0  0  0  0  0  0  0  0  0
  -18.3090   11.9125   29.2151 H   0  0  0  0  0  0  0  0  0  0  0  0
  -17.6837   12.8810   30.6087 H   0  0  0  0  0  0  0  0  0  0  0  0
  -17.4797   16.7773   26.3889 H   0  0  0  0  0  0  0  0  0  0  0  0
  -17.1086   15.4217   24.2861 H   0  0  0  0  0  0  0  0  0  0  0  0
  -18.3550   12.5581   26.9765 H   0  0  0  0  0  0  0  0  0  0  0  0
  1  2  1  0  0  0  0
  1  6  1  0  0  0  0
  2  3  2  0  0  0  0
  2  8  1  0  0  0  0
  1  4  1  0  0  0  0
  4 11  1  0  0  0  0
  4 12  1  0  0  0  0
  4 13  1  0  0  0  0
  5  7  1  0  0  0  0
  5 18  1  0  0  0  0
  6 14  1  0  0  0  0
  6 15  1  0  0  0  0
  6 16  1  0  0  0  0
  7 10  1  0  0  0  0
  8  9  1  0  0  0  0
  8 10  1  0  0  0  0
  5  9  1  0  0  0  0
  9 17  1  0  0  0  0
 10 19  1  0  0  0  0
M  END
>  <pdb_header>
CRYST1   99.370   99.372   99.366  90.00  90.00  90.00 P 1           1 


$$$$
