top5_centroid
  PyMOL2.3          3D                             0

 18 18  0  0  0  0  0  0  0  0999 V2000
  -18.5655   13.9661   27.7311 N   0  0  0  0  0  0  0  0  0  0  0  0
  -19.5549   14.8668   27.6479 C   0  0  0  0  0  0  0  0  0  0  0  0
  -20.6779   14.5328   27.3789 O   0  0  0  0  0  0  0  0  0  0  0  0
  -18.6791   12.5609   27.2904 C   0  0  0  0  0  0  0  0  0  0  0  0
  -17.6549   16.5045   28.1296 N   0  0  0  0  0  0  0  0  0  0  0  0
  -18.5551   12.2405   25.8109 C   0  0  0  0  0  0  0  0  0  0  0  0
  -17.6194   17.8689   28.3652 N   0  0  0  0  0  0  0  0  0  0  0  0
  -18.9826   16.2066   27.9333 C   0  0  0  0  0  0  0  0  0  0  0  0
  -18.8553   18.3404   28.5001 N   0  0  0  0  0  0  0  0  0  0  0  0
  -19.7760   17.3302   28.1397 C   0  0  0  0  0  0  0  0  0  0  0  0
  -17.6424   14.3627   27.8708 H   0  0  0  0  0  0  0  0  0  0  0  0
  -18.0238   11.9296   27.9089 H   0  0  0  0  0  0  0  0  0  0  0  0
  -19.6989   12.2592   27.5990 H   0  0  0  0  0  0  0  0  0  0  0  0
  -18.7317   11.1861   25.6050 H   0  0  0  0  0  0  0  0  0  0  0  0
  -19.2788   12.8078   25.2248 H   0  0  0  0  0  0  0  0  0  0  0  0
  -17.5552   12.5629   25.4915 H   0  0  0  0  0  0  0  0  0  0  0  0
  -19.0703   19.2880   28.7524 H   0  0  0  0  0  0  0  0  0  0  0  0
  -20.8501   17.4726   28.0868 H   0  0  0  0  0  0  0  0  0  0  0  0
  1  2  1  0  0  0  0
  1 11  1  0  0  0  0
  2  3  2  0  0  0  0
  2  8  1  0  0  0  0
  1  4  1  0  0  0  0
  4 12  1  0  0  0  0
  4 13  1  0  0  0  0
  5  7  1  0  0  0  0
  4  6  1  0  0  0  0
  6 14  1  0  0  0  0
  6 15  1  0  0  0  0
  6 16  1  0  0  0  0
  7  9  1  0  0  0  0
  5  8  1  0  0  0  0
  8 10  1  0  0  0  0
  9 10  1  0  0  0  0
  9 17  1  0  0  0  0
 10 18  1  0  0  0  0
M  END
>  <pdb_header>
CRYST1   99.354   99.356   99.350  90.00  90.00  90.00 P 1           1 


$$$$
