top1_centroid
  PyMOL2.3          3D                             0

 24 25  0  0  0  0  0  0  0  0999 V2000
  -18.4096   16.4984   26.7433 N   0  0  0  0  0  0  0  0  0  0  0  0
  -18.3395   14.2593   25.6398 C   0  0  0  0  0  0  0  0  0  0  0  0
  -18.2752   15.1261   26.8027 C   0  0  0  0  0  0  0  0  0  0  0  0
  -18.3346   19.7804   27.0671 N   0  0  0  0  0  0  0  0  0  0  0  0
  -18.4851   17.4517   27.8687 C   0  0  0  0  0  0  0  0  0  0  0  0
  -19.2152   20.6579   26.5191 N   0  0  0  0  0  0  0  0  0  0  0  0
  -19.0424   18.7154   27.3895 C   0  0  0  0  0  0  0  0  0  0  0  0
  -20.5148   20.2430   26.5439 C   0  0  0  0  0  0  0  0  0  0  0  0
  -20.3987   18.9531   27.0075 C   0  0  0  0  0  0  0  0  0  0  0  0
  -18.0775   14.5160   28.0683 C   0  0  0  0  0  0  0  0  0  0  0  0
  -17.9713   13.1386   28.1435 C   0  0  0  0  0  0  0  0  0  0  0  0
  -17.8796   12.3252   26.9935 C   0  0  0  0  0  0  0  0  0  0  0  0
  -18.1187   12.8661   25.7156 C   0  0  0  0  0  0  0  0  0  0  0  0
  -18.8080   14.6575   24.5077 F   0  0  0  0  0  0  0  0  0  0  0  0
  -18.6594   16.8903   25.8402 H   0  0  0  0  0  0  0  0  0  0  0  0
  -19.2245   16.9765   28.5199 H   0  0  0  0  0  0  0  0  0  0  0  0
  -17.5658   17.3722   28.4514 H   0  0  0  0  0  0  0  0  0  0  0  0
  -18.9004   21.5338   26.1198 H   0  0  0  0  0  0  0  0  0  0  0  0
  -21.3759   20.8937   26.4247 H   0  0  0  0  0  0  0  0  0  0  0  0
  -21.1975   18.2630   27.2842 H   0  0  0  0  0  0  0  0  0  0  0  0
  -18.0418   15.0813   28.9958 H   0  0  0  0  0  0  0  0  0  0  0  0
  -17.8957   12.7768   29.1594 H   0  0  0  0  0  0  0  0  0  0  0  0
  -17.6036   11.2902   27.1682 H   0  0  0  0  0  0  0  0  0  0  0  0
  -18.0114   12.3199   24.7840 H   0  0  0  0  0  0  0  0  0  0  0  0
  1  3  1  0  0  0  0
  1 15  1  0  0  0  0
  2 13  1  0  0  0  0
  2 14  1  0  0  0  0
  2  3  1  0  0  0  0
  3 10  1  0  0  0  0
  4  7  1  0  0  0  0
  1  5  1  0  0  0  0
  5 16  1  0  0  0  0
  5 17  1  0  0  0  0
  4  6  1  0  0  0  0
  6 18  1  0  0  0  0
  5  7  1  0  0  0  0
  6  8  1  0  0  0  0
  8  9  1  0  0  0  0
  8 19  1  0  0  0  0
  7  9  1  0  0  0  0
  9 20  1  0  0  0  0
 10 21  1  0  0  0  0
 10 11  1  0  0  0  0
 11 22  1  0  0  0  0
 11 12  1  0  0  0  0
 12 23  1  0  0  0  0
 12 13  1  0  0  0  0
 13 24  1  0  0  0  0
M  END
>  <pdb_header>
CRYST1   99.195   99.197   99.191  90.00  90.00  90.00 P 1           1 


$$$$
