
     RDKit          3D

 16 17  0  0  0  0  0  0  0  0999 V2000
  -17.2158   20.3970   25.4792 Br  0  0  0  0  0  0  0  0  0  0  0  0
  -16.1219   19.0765   26.2866 C   0  0  0  0  0  0  0  0  0  0  0  0
  -16.5841   17.7696   26.6022 C   0  0  0  0  0  0  0  0  0  0  0  0
  -15.6642   16.8775   27.2042 C   0  0  0  0  0  0  0  0  0  0  0  0
  -14.3793   17.2475   27.4747 N   0  0  0  0  0  0  0  0  0  0  0  0
  -13.9717   18.4483   27.1794 C   0  0  0  0  0  0  0  0  0  0  0  0
  -12.9653   18.7079   27.4012 H   0  0  0  0  0  0  0  0  0  0  0  0
  -14.8207   19.3984   26.5804 C   0  0  0  0  0  0  0  0  0  0  0  0
  -14.4409   20.3629   26.3594 H   0  0  0  0  0  0  0  0  0  0  0  0
  -16.0197   15.6042   27.5414 N   0  0  0  0  0  0  0  0  0  0  0  0
  -17.2323   15.1841   27.3101 C   0  0  0  0  0  0  0  0  0  0  0  0
  -17.4806   14.1879   27.5836 H   0  0  0  0  0  0  0  0  0  0  0  0
  -18.2097   16.0089   26.7137 C   0  0  0  0  0  0  0  0  0  0  0  0
  -19.1811   15.6198   26.5462 H   0  0  0  0  0  0  0  0  0  0  0  0
  -17.8993   17.2965   26.3573 C   0  0  0  0  0  0  0  0  0  0  0  0
  -18.6314   17.9177   25.9096 H   0  0  0  0  0  0  0  0  0  0  0  0
  1  2  1  0
  2  3  1  0
  2  8  2  0
  3  4  1  0
  3 15  2  0
  4  5  1  0
  4 10  2  0
  5  6  2  0
  6  7  1  0
  6  8  1  0
  8  9  1  0
 10 11  1  0
 11 12  1  0
 11 13  2  0
 13 14  1  0
 13 15  1  0
 15 16  1  0
M  END
$$$$
