top4_centroid
  PyMOL2.3          3D                             0

 17 18  0  0  0  0  0  0  0  0999 V2000
  -14.7334   18.8436   25.0212 N   0  0  0  0  0  0  0  0  0  0  0  0
  -17.0578   17.2909   27.5000 C   0  0  0  0  0  0  0  0  0  0  0  0
  -14.2819   20.5662   23.6033 O   0  0  0  0  0  0  0  0  0  0  0  0
  -15.9795   17.3261   26.5612 C   0  0  0  0  0  0  0  0  0  0  0  0
  -15.7313   18.5466   26.0146 C   0  0  0  0  0  0  0  0  0  0  0  0
  -14.9725   20.1247   24.5405 C   0  0  0  0  0  0  0  0  0  0  0  0
  -16.0632   20.8262   25.2907 C   0  0  0  0  0  0  0  0  0  0  0  0
  -16.4655   19.6776   26.2080 C   0  0  0  0  0  0  0  0  0  0  0  0
  -17.5289   19.6539   27.0448 C   0  0  0  0  0  0  0  0  0  0  0  0
  -17.7872   18.4341   27.6776 C   0  0  0  0  0  0  0  0  0  0  0  0
  -17.6433   15.6826   28.3348 B   0  0  0  0  0  0  0  0  0  0  0  0
  -15.3928   16.4277   26.3985 H   0  0  0  0  0  0  0  0  0  0  0  0
  -14.1945   18.1807   24.4783 H   0  0  0  0  0  0  0  0  0  0  0  0
  -15.6916   21.7383   25.7687 H   0  0  0  0  0  0  0  0  0  0  0  0
  -16.9183   21.1654   24.6882 H   0  0  0  0  0  0  0  0  0  0  0  0
  -18.2881   20.4321   27.0796 H   0  0  0  0  0  0  0  0  0  0  0  0
  -18.6983   18.3548   28.2570 H   0  0  0  0  0  0  0  0  0  0  0  0
  1  6  1  0  0  0  0
  1 13  1  0  0  0  0
  2  4  1  0  0  0  0
  2 10  1  0  0  0  0
  4  5  1  0  0  0  0
  4 12  1  0  0  0  0
  1  5  1  0  0  0  0
  5  8  1  0  0  0  0
  3  6  1  0  0  0  0
  6  7  1  0  0  0  0
  7  8  1  0  0  0  0
  7 14  1  0  0  0  0
  7 15  1  0  0  0  0
  8  9  1  0  0  0  0
  9 10  1  0  0  0  0
  9 16  1  0  0  0  0
 10 17  1  0  0  0  0
  2 11  1  0  0  0  0
M  END
>  <pdb_header>
CRYST1   99.366   99.368   99.362  90.00  90.00  90.00 P 1           1 


$$$$
