top1_centroid
  PyMOL2.3          3D                             0

 39 40  0  0  0  0  0  0  0  0999 V2000
  -17.8388   17.9011   27.3727 N   0  0  0  0  0  0  0  0  0  0  0  0
  -17.4576   16.6895   27.8787 C   0  0  0  0  0  0  0  0  0  0  0  0
  -16.3519   16.5412   28.3477 O   0  0  0  0  0  0  0  0  0  0  0  0
  -18.4418   15.4888   27.8661 C   0  0  0  0  0  0  0  0  0  0  0  0
  -19.0096   20.7057   27.3187 N   0  0  0  0  0  0  0  0  0  0  0  0
  -18.7404   15.3167   26.4503 O   0  0  0  0  0  0  0  0  0  0  0  0
  -18.6875   14.0633   25.8993 C   0  0  0  0  0  0  0  0  0  0  0  0
  -17.7233   13.8370   24.8460 C   0  0  0  0  0  0  0  0  0  0  0  0
  -17.5244   12.5392   24.3768 C   0  0  0  0  0  0  0  0  0  0  0  0
  -18.2429   11.4877   24.9864 C   0  0  0  0  0  0  0  0  0  0  0  0
  -18.0598   10.0711   24.3929 C   0  0  0  0  0  0  0  0  0  0  0  0
  -19.1740   11.7363   26.0989 C   0  0  0  0  0  0  0  0  0  0  0  0
  -19.3986   13.0419   26.5028 C   0  0  0  0  0  0  0  0  0  0  0  0
  -19.2665   18.2221   27.0417 C   0  0  0  0  0  0  0  0  0  0  0  0
  -19.7715   19.4760   27.7490 C   0  0  0  0  0  0  0  0  0  0  0  0
  -19.5477   21.9608   28.0274 C   0  0  0  0  0  0  0  0  0  0  0  0
  -17.5727   20.5454   27.7790 C   0  0  0  0  0  0  0  0  0  0  0  0
  -16.9299   19.1309   27.3646 C   0  0  0  0  0  0  0  0  0  0  0  0
  -17.8451   14.6811   28.3011 H   0  0  0  0  0  0  0  0  0  0  0  0
  -19.3406   15.7511   28.4513 H   0  0  0  0  0  0  0  0  0  0  0  0
  -17.1411   14.6135   24.3672 H   0  0  0  0  0  0  0  0  0  0  0  0
  -16.8738   12.3489   23.5254 H   0  0  0  0  0  0  0  0  0  0  0  0
  -17.2823   10.0128   23.6172 H   0  0  0  0  0  0  0  0  0  0  0  0
  -17.8045    9.4038   25.2279 H   0  0  0  0  0  0  0  0  0  0  0  0
  -19.0379    9.6842   24.0782 H   0  0  0  0  0  0  0  0  0  0  0  0
  -19.6139   10.9048   26.6402 H   0  0  0  0  0  0  0  0  0  0  0  0
  -20.1750   13.2243   27.2385 H   0  0  0  0  0  0  0  0  0  0  0  0
  -19.3314   18.4753   25.9711 H   0  0  0  0  0  0  0  0  0  0  0  0
  -19.9237   17.3466   27.1055 H   0  0  0  0  0  0  0  0  0  0  0  0
  -19.7802   19.3832   28.8320 H   0  0  0  0  0  0  0  0  0  0  0  0
  -20.8251   19.6643   27.5010 H   0  0  0  0  0  0  0  0  0  0  0  0
  -19.0797   20.8455   26.3043 H   0  0  0  0  0  0  0  0  0  0  0  0
  -19.0325   22.8403   27.6558 H   0  0  0  0  0  0  0  0  0  0  0  0
  -20.5552   22.0288   27.6123 H   0  0  0  0  0  0  0  0  0  0  0  0
  -19.4058   21.7990   29.0957 H   0  0  0  0  0  0  0  0  0  0  0  0
  -17.4874   20.6440   28.8546 H   0  0  0  0  0  0  0  0  0  0  0  0
  -17.0194   21.3207   27.2395 H   0  0  0  0  0  0  0  0  0  0  0  0
  -16.0052   18.9236   27.9057 H   0  0  0  0  0  0  0  0  0  0  0  0
  -16.6187   19.2398   26.3208 H   0  0  0  0  0  0  0  0  0  0  0  0
  1 14  1  0  0  0  0
  1 18  1  0  0  0  0
  1  2  1  0  0  0  0
  2  3  2  0  0  0  0
  2  4  1  0  0  0  0
  4 19  1  0  0  0  0
  4 20  1  0  0  0  0
  5 16  1  0  0  0  0
  5 17  1  0  0  0  0
  5 32  1  0  0  0  0
  4  6  1  0  0  0  0
  6  7  1  0  0  0  0
  7  8  1  0  0  0  0
  8 21  1  0  0  0  0
  8  9  1  0  0  0  0
  9 22  1  0  0  0  0
  9 10  1  0  0  0  0
 10 12  1  0  0  0  0
 10 11  1  0  0  0  0
 11 23  1  0  0  0  0
 11 24  1  0  0  0  0
 11 25  1  0  0  0  0
 12 13  1  0  0  0  0
 12 26  1  0  0  0  0
  7 13  1  0  0  0  0
 13 27  1  0  0  0  0
 14 15  1  0  0  0  0
 14 28  1  0  0  0  0
 14 29  1  0  0  0  0
  5 15  1  0  0  0  0
 15 30  1  0  0  0  0
 15 31  1  0  0  0  0
 16 33  1  0  0  0  0
 16 34  1  0  0  0  0
 16 35  1  0  0  0  0
 17 18  1  0  0  0  0
 17 36  1  0  0  0  0
 17 37  1  0  0  0  0
 18 38  1  0  0  0  0
 18 39  1  0  0  0  0
M  END
>  <pdb_header>
CRYST1   98.984   98.986   98.980  90.00  90.00  90.00 P 1           1 


$$$$
