top2_centroid
  PyMOL2.3          3D                             0

 26 26  0  0  0  0  0  0  0  0999 V2000
  -14.9009   16.3293   27.7626 N   0  0  0  0  0  0  0  0  0  0  0  0
  -16.1305   16.0417   27.1472 C   0  0  0  0  0  0  0  0  0  0  0  0
  -13.6211   17.9091   28.9917 O   0  0  0  0  0  0  0  0  0  0  0  0
  -16.7188   14.6828   27.6565 C   0  0  0  0  0  0  0  0  0  0  0  0
  -15.6871   18.6178   27.8682 O   0  0  0  0  0  0  0  0  0  0  0  0
  -17.7823   14.0561   26.8271 C   0  0  0  0  0  0  0  0  0  0  0  0
  -19.0576   14.0328   27.2338 C   0  0  0  0  0  0  0  0  0  0  0  0
  -20.0446   13.3040   26.5337 C   0  0  0  0  0  0  0  0  0  0  0  0
  -19.7567   12.7587   25.3410 C   0  0  0  0  0  0  0  0  0  0  0  0
  -18.4346   12.8068   24.8560 C   0  0  0  0  0  0  0  0  0  0  0  0
  -17.4367   13.4276   25.6238 C   0  0  0  0  0  0  0  0  0  0  0  0
  -13.5823   18.0822   26.1939 C   0  0  0  0  0  0  0  0  0  0  0  0
  -20.6811   12.0350   24.6935 F   0  0  0  0  0  0  0  0  0  0  0  0
  -14.4629   17.8712   27.7865 S   0  0  0  0  0  0  0  0  0  0  0  0
  -14.9080   16.3134   28.7875 H   0  0  0  0  0  0  0  0  0  0  0  0
  -16.9297   16.7873   27.2373 H   0  0  0  0  0  0  0  0  0  0  0  0
  -15.8281   16.0476   26.0926 H   0  0  0  0  0  0  0  0  0  0  0  0
  -15.9588   13.9740   27.9987 H   0  0  0  0  0  0  0  0  0  0  0  0
  -17.0946   14.9230   28.6527 H   0  0  0  0  0  0  0  0  0  0  0  0
  -19.3213   14.4438   28.2000 H   0  0  0  0  0  0  0  0  0  0  0  0
  -21.0329   13.3390   26.9734 H   0  0  0  0  0  0  0  0  0  0  0  0
  -18.2651   12.3622   23.8897 H   0  0  0  0  0  0  0  0  0  0  0  0
  -16.3951   13.4886   25.3248 H   0  0  0  0  0  0  0  0  0  0  0  0
  -12.7178   17.4102   26.1163 H   0  0  0  0  0  0  0  0  0  0  0  0
  -13.3752   19.1503   26.0410 H   0  0  0  0  0  0  0  0  0  0  0  0
  -14.2558   17.8669   25.3568 H   0  0  0  0  0  0  0  0  0  0  0  0
  1  2  1  0  0  0  0
  1 15  1  0  0  0  0
  2  4  1  0  0  0  0
  2 16  1  0  0  0  0
  2 17  1  0  0  0  0
  3 14  1  0  0  0  0
  4  6  1  0  0  0  0
  4 18  1  0  0  0  0
  4 19  1  0  0  0  0
  6  7  1  0  0  0  0
  6 11  1  0  0  0  0
  7  8  1  0  0  0  0
  7 20  1  0  0  0  0
  8  9  1  0  0  0  0
  8 21  1  0  0  0  0
  9 10  1  0  0  0  0
  9 13  1  0  0  0  0
 10 11  1  0  0  0  0
 10 22  1  0  0  0  0
 11 23  1  0  0  0  0
 12 24  1  0  0  0  0
 12 25  1  0  0  0  0
 12 26  1  0  0  0  0
  1 14  1  0  0  0  0
  5 14  1  0  0  0  0
 12 14  1  0  0  0  0
M  END
>  <pdb_header>
CRYST1   99.341   99.343   99.337  90.00  90.00  90.00 P 1           1 


$$$$
