top2_centroid
  PyMOL2.3          3D                             0

 23 23  0  0  0  0  0  0  0  0999 V2000
  -16.7310   13.0332   24.4889 N   0  0  0  0  0  0  0  0  0  0  0  0
  -20.1902   12.5671   25.8200 C   0  0  0  0  0  0  0  0  0  0  0  0
  -18.2826   11.6156   23.7297 O   0  0  0  0  0  0  0  0  0  0  0  0
  -18.8943   13.1019   25.5967 C   0  0  0  0  0  0  0  0  0  0  0  0
  -18.4393   14.1121   26.3817 N   0  0  0  0  0  0  0  0  0  0  0  0
  -18.0044   12.4968   24.4837 C   0  0  0  0  0  0  0  0  0  0  0  0
  -20.4133   13.9320   27.6955 N   0  0  0  0  0  0  0  0  0  0  0  0
  -19.2559   14.4882   27.3748 C   0  0  0  0  0  0  0  0  0  0  0  0
  -18.8128   15.5598   28.2695 C   0  0  0  0  0  0  0  0  0  0  0  0
  -17.3087   15.9125   28.2465 C   0  0  0  0  0  0  0  0  0  0  0  0
  -19.7618   16.8386   28.1993 C   0  0  0  0  0  0  0  0  0  0  0  0
  -20.9275   12.9905   26.9110 C   0  0  0  0  0  0  0  0  0  0  0  0
  -21.0105   11.3098   24.8427 C   0  0  0  0  0  0  0  0  0  0  0  0
  -16.0532   12.5594   23.9018 H   0  0  0  0  0  0  0  0  0  0  0  0
  -16.4958   13.5870   25.2987 H   0  0  0  0  0  0  0  0  0  0  0  0
  -18.8727   15.1812   29.3041 H   0  0  0  0  0  0  0  0  0  0  0  0
  -16.9998   16.3293   27.2788 H   0  0  0  0  0  0  0  0  0  0  0  0
  -16.7446   15.0356   28.5858 H   0  0  0  0  0  0  0  0  0  0  0  0
  -16.8409   16.6414   28.9064 H   0  0  0  0  0  0  0  0  0  0  0  0
  -19.8722   17.2242   27.1777 H   0  0  0  0  0  0  0  0  0  0  0  0
  -19.2567   17.6459   28.7579 H   0  0  0  0  0  0  0  0  0  0  0  0
  -20.7172   16.6875   28.7151 H   0  0  0  0  0  0  0  0  0  0  0  0
  -21.7987   12.4240   27.2205 H   0  0  0  0  0  0  0  0  0  0  0  0
  1 14  1  0  0  0  0
  1 15  1  0  0  0  0
  2 12  1  0  0  0  0
  2 13  1  0  0  0  0
  3  6  1  0  0  0  0
  2  4  1  0  0  0  0
  4  5  1  0  0  0  0
  5  8  1  0  0  0  0
  1  6  1  0  0  0  0
  4  6  1  0  0  0  0
  7  8  1  0  0  0  0
  8  9  1  0  0  0  0
  9 10  1  0  0  0  0
  9 11  1  0  0  0  0
  9 16  1  0  0  0  0
 10 17  1  0  0  0  0
 10 18  1  0  0  0  0
 10 19  1  0  0  0  0
 11 20  1  0  0  0  0
 11 21  1  0  0  0  0
 11 22  1  0  0  0  0
  7 12  1  0  0  0  0
 12 23  1  0  0  0  0
M  END
>  <pdb_header>
CRYST1   99.220   99.222   99.216  90.00  90.00  90.00 P 1           1 


$$$$
