top3_centroid
  PyMOL2.3          3D                             0

 27 28  0  0  0  0  0  0  0  0999 V2000
  -18.4912   16.4537   26.8128 N   0  0  0  0  0  0  0  0  0  0  0  0
  -19.8964   18.4253   26.5206 C   0  0  0  0  0  0  0  0  0  0  0  0
  -18.6202   17.8800   26.6661 C   0  0  0  0  0  0  0  0  0  0  0  0
  -18.3401   12.0676   25.5882 N   0  0  0  0  0  0  0  0  0  0  0  0
  -17.4547   15.5754   26.4173 C   0  0  0  0  0  0  0  0  0  0  0  0
  -18.8136   12.1853   26.8939 N   0  0  0  0  0  0  0  0  0  0  0  0
  -17.8628   14.1204   26.3561 C   0  0  0  0  0  0  0  0  0  0  0  0
  -17.7784   13.2673   25.2649 C   0  0  0  0  0  0  0  0  0  0  0  0
  -17.2117   13.6876   23.9676 C   0  0  0  0  0  0  0  0  0  0  0  0
  -18.5952   13.5047   27.3306 C   0  0  0  0  0  0  0  0  0  0  0  0
  -17.5517   18.7612   26.6095 C   0  0  0  0  0  0  0  0  0  0  0  0
  -17.7207   20.1445   26.4588 C   0  0  0  0  0  0  0  0  0  0  0  0
  -19.0266   20.6765   26.4760 C   0  0  0  0  0  0  0  0  0  0  0  0
  -20.1370   19.7678   26.5128 C   0  0  0  0  0  0  0  0  0  0  0  0
  -21.0180   17.6756   26.6086 F   0  0  0  0  0  0  0  0  0  0  0  0
  -19.3728   16.1055   27.1760 H   0  0  0  0  0  0  0  0  0  0  0  0
  -16.9447   15.9407   25.5117 H   0  0  0  0  0  0  0  0  0  0  0  0
  -16.7603   15.6461   27.2659 H   0  0  0  0  0  0  0  0  0  0  0  0
  -16.3293   14.3210   24.1442 H   0  0  0  0  0  0  0  0  0  0  0  0
  -17.8847   14.2412   23.3098 H   0  0  0  0  0  0  0  0  0  0  0  0
  -16.7074   12.9112   23.3829 H   0  0  0  0  0  0  0  0  0  0  0  0
  -19.1849   11.3807   27.3600 H   0  0  0  0  0  0  0  0  0  0  0  0
  -18.9301   13.9489   28.2654 H   0  0  0  0  0  0  0  0  0  0  0  0
  -16.5344   18.3928   26.5164 H   0  0  0  0  0  0  0  0  0  0  0  0
  -16.8503   20.8142   26.4241 H   0  0  0  0  0  0  0  0  0  0  0  0
  -19.0982   21.7646   26.4357 H   0  0  0  0  0  0  0  0  0  0  0  0
  -21.1433   20.1442   26.6051 H   0  0  0  0  0  0  0  0  0  0  0  0
  1  3  1  0  0  0  0
  1 16  1  0  0  0  0
  2 14  1  0  0  0  0
  2 15  1  0  0  0  0
  2  3  1  0  0  0  0
  3 11  1  0  0  0  0
  4  8  1  0  0  0  0
  1  5  1  0  0  0  0
  5 17  1  0  0  0  0
  5 18  1  0  0  0  0
  4  6  1  0  0  0  0
  6 10  1  0  0  0  0
  6 22  1  0  0  0  0
  5  7  1  0  0  0  0
  7  8  1  0  0  0  0
  8  9  1  0  0  0  0
  9 19  1  0  0  0  0
  9 20  1  0  0  0  0
  9 21  1  0  0  0  0
  7 10  1  0  0  0  0
 10 23  1  0  0  0  0
 11 24  1  0  0  0  0
 11 12  1  0  0  0  0
 12 25  1  0  0  0  0
 12 13  1  0  0  0  0
 13 26  1  0  0  0  0
 13 14  1  0  0  0  0
 14 27  1  0  0  0  0
M  END
>  <pdb_header>
CRYST1   99.166   99.168   99.162  90.00  90.00  90.00 P 1           1 


$$$$
