top1_centroid
  PyMOL2.3          3D                             0

 27 28  0  0  0  0  0  0  0  0999 V2000
  -17.6264   15.0041   25.8289 N   0  0  0  0  0  0  0  0  0  0  0  0
  -21.5753   10.3767   24.7512 C   0  0  0  0  0  0  0  0  0  0  0  0
  -20.8871   11.4341   25.4715 O   0  0  0  0  0  0  0  0  0  0  0  0
  -19.6024   11.9045   25.1204 C   0  0  0  0  0  0  0  0  0  0  0  0
  -17.1649   16.3739   27.5989 O   0  0  0  0  0  0  0  0  0  0  0  0
  -19.2576   13.1772   25.5961 C   0  0  0  0  0  0  0  0  0  0  0  0
  -18.0510   13.7804   25.2674 C   0  0  0  0  0  0  0  0  0  0  0  0
  -17.6736   15.3182   27.2071 C   0  0  0  0  0  0  0  0  0  0  0  0
  -18.4665   14.3981   28.1613 C   0  0  0  0  0  0  0  0  0  0  0  0
  -20.0677   14.2592   27.8719 C   0  0  0  0  0  0  0  0  0  0  0  0
  -20.3007   14.0266   26.3575 C   0  0  0  0  0  0  0  0  0  0  0  0
  -17.0968   13.0464   24.5398 C   0  0  0  0  0  0  0  0  0  0  0  0
  -17.4878   11.8228   23.9623 C   0  0  0  0  0  0  0  0  0  0  0  0
  -18.6911   11.2032   24.3249 C   0  0  0  0  0  0  0  0  0  0  0  0
  -22.5913   10.3704   25.1738 H   0  0  0  0  0  0  0  0  0  0  0  0
  -21.1959    9.3506   24.8618 H   0  0  0  0  0  0  0  0  0  0  0  0
  -21.6706   10.6356   23.6921 H   0  0  0  0  0  0  0  0  0  0  0  0
  -17.1727   15.7063   25.2604 H   0  0  0  0  0  0  0  0  0  0  0  0
  -18.0374   13.3969   28.2966 H   0  0  0  0  0  0  0  0  0  0  0  0
  -18.3824   14.8962   29.1383 H   0  0  0  0  0  0  0  0  0  0  0  0
  -20.5158   13.3851   28.3585 H   0  0  0  0  0  0  0  0  0  0  0  0
  -20.5072   15.1831   28.2576 H   0  0  0  0  0  0  0  0  0  0  0  0
  -20.2330   15.0791   26.0612 H   0  0  0  0  0  0  0  0  0  0  0  0
  -21.2924   13.6729   26.0743 H   0  0  0  0  0  0  0  0  0  0  0  0
  -16.1151   13.4347   24.3170 H   0  0  0  0  0  0  0  0  0  0  0  0
  -16.8060   11.2790   23.3171 H   0  0  0  0  0  0  0  0  0  0  0  0
  -18.8547   10.2441   23.8552 H   0  0  0  0  0  0  0  0  0  0  0  0
  1  8  1  0  0  0  0
  1 18  1  0  0  0  0
  2 15  1  0  0  0  0
  2 16  1  0  0  0  0
  2 17  1  0  0  0  0
  2  3  2  0  0  0  0
  3  4  1  0  0  0  0
  4 14  1  0  0  0  0
  4  6  1  0  0  0  0
  6  7  1  0  0  0  0
  6 11  1  0  0  0  0
  1  7  1  0  0  0  0
  5  8  1  0  0  0  0
  8  9  1  0  0  0  0
  9 10  1  0  0  0  0
  9 19  1  0  0  0  0
  9 20  1  0  0  0  0
 10 11  1  0  0  0  0
 10 21  1  0  0  0  0
 10 22  1  0  0  0  0
 11 23  1  0  0  0  0
 11 24  1  0  0  0  0
  7 12  1  0  0  0  0
 12 25  1  0  0  0  0
 12 13  1  0  0  0  0
 13 26  1  0  0  0  0
 13 14  1  0  0  0  0
 14 27  1  0  0  0  0
M  END
>  <pdb_header>
CRYST1   99.306   99.308   99.302  90.00  90.00  90.00 P 1           1 


$$$$
