
     RDKit          3D

 21 21  0  0  0  0  0  0  0  0999 V2000
  -19.2025   12.3860   28.1663 Br  0  0  0  0  0  0  0  0  0  0  0  0
  -21.0940   12.4285   28.1952 C   0  0  0  0  0  0  0  0  0  0  0  0
  -21.7816   12.0845   29.3540 C   0  0  0  0  0  0  0  0  0  0  0  0
  -21.2591   11.7948   30.2256 H   0  0  0  0  0  0  0  0  0  0  0  0
  -23.1729   12.1165   29.3609 C   0  0  0  0  0  0  0  0  0  0  0  0
  -23.8025   11.7481   30.5212 O   0  0  0  0  0  0  0  0  0  0  0  0
  -23.9644   12.7705   31.5338 C   0  0  0  0  0  0  0  0  0  0  0  0
  -24.3030   12.2895   32.4500 H   0  0  0  0  0  0  0  0  0  0  0  0
  -24.6997   13.4901   31.1767 H   0  0  0  0  0  0  0  0  0  0  0  0
  -23.0064   13.2629   31.6978 H   0  0  0  0  0  0  0  0  0  0  0  0
  -23.9004   12.5055   28.2276 C   0  0  0  0  0  0  0  0  0  0  0  0
  -25.4270   12.5905   28.2113 C   0  0  0  0  0  0  0  0  0  0  0  0
  -25.8019   12.3478   29.1934 H   0  0  0  0  0  0  0  0  0  0  0  0
  -25.8474   11.9583   27.4470 H   0  0  0  0  0  0  0  0  0  0  0  0
  -25.8357   14.0150   27.9111 C   0  0  0  0  0  0  0  0  0  0  0  0
  -26.0020   14.7842   28.8847 O   0  0  0  0  0  0  0  0  0  0  0  0
  -26.0333   14.3274   26.7157 O   0  0  0  0  0  0  0  0  0  0  0  0
  -23.1942   12.8396   27.0733 C   0  0  0  0  0  0  0  0  0  0  0  0
  -23.7291   13.1166   26.1982 H   0  0  0  0  0  0  0  0  0  0  0  0
  -21.8020   12.8022   27.0539 C   0  0  0  0  0  0  0  0  0  0  0  0
  -21.2820   13.0552   26.1672 H   0  0  0  0  0  0  0  0  0  0  0  0
  1  2  1  0
  2  3  1  0
  2 20  2  0
  3  4  1  0
  3  5  2  0
  5  6  1  0
  5 11  1  0
  6  7  1  0
  7  8  1  0
  7  9  1  0
  7 10  1  0
 11 12  1  0
 11 18  2  0
 12 13  1  0
 12 14  1  0
 12 15  1  0
 15 16  1  0
 15 17  2  0
 18 19  1  0
 18 20  1  0
 20 21  1  0
M  END
$$$$
