top1_centroid
  PyMOL2.3          3D                             0

 23 23  0  0  0  0  0  0  0  0999 V2000
  -21.4276   14.1808   27.9473 N   0  0  0  0  0  0  0  0  0  0  0  0
  -18.3146   12.7922   27.8536 C   0  0  0  0  0  0  0  0  0  0  0  0
  -17.9718   13.7687   25.3755 O   0  0  0  0  0  0  0  0  0  0  0  0
  -20.5280   12.9914   26.1461 C   0  0  0  0  0  0  0  0  0  0  0  0
  -19.1003   15.0928   27.2815 O   0  0  0  0  0  0  0  0  0  0  0  0
  -21.6279   13.2145   26.9606 C   0  0  0  0  0  0  0  0  0  0  0  0
  -22.5005   14.3868   29.0313 C   0  0  0  0  0  0  0  0  0  0  0  0
  -22.8176   12.5580   26.7065 C   0  0  0  0  0  0  0  0  0  0  0  0
  -22.9125   11.6313   25.6768 C   0  0  0  0  0  0  0  0  0  0  0  0
  -21.7684   11.3176   24.9121 C   0  0  0  0  0  0  0  0  0  0  0  0
  -20.5513   11.9796   25.0907 C   0  0  0  0  0  0  0  0  0  0  0  0
  -18.9134   13.8484   26.5357 S   0  0  0  0  0  0  0  0  0  0  0  0
  -18.3118   11.7346   27.5557 H   0  0  0  0  0  0  0  0  0  0  0  0
  -18.9947   12.7488   28.7116 H   0  0  0  0  0  0  0  0  0  0  0  0
  -17.2914   13.0834   28.1248 H   0  0  0  0  0  0  0  0  0  0  0  0
  -20.8800   14.9965   27.7223 H   0  0  0  0  0  0  0  0  0  0  0  0
  -22.4737   13.6589   29.8547 H   0  0  0  0  0  0  0  0  0  0  0  0
  -23.5499   14.4294   28.6962 H   0  0  0  0  0  0  0  0  0  0  0  0
  -22.2989   15.3729   29.4660 H   0  0  0  0  0  0  0  0  0  0  0  0
  -23.6889   12.8556   27.2814 H   0  0  0  0  0  0  0  0  0  0  0  0
  -23.7855   10.9968   25.5269 H   0  0  0  0  0  0  0  0  0  0  0  0
  -21.7948   10.5053   24.1940 H   0  0  0  0  0  0  0  0  0  0  0  0
  -19.8661   11.8040   24.2754 H   0  0  0  0  0  0  0  0  0  0  0  0
  1  7  1  0  0  0  0
  1 16  1  0  0  0  0
  2 13  1  0  0  0  0
  2 14  1  0  0  0  0
  2 15  1  0  0  0  0
  3 12  1  0  0  0  0
  4  6  1  0  0  0  0
  4 11  1  0  0  0  0
  1  6  1  0  0  0  0
  6  8  1  0  0  0  0
  7 17  1  0  0  0  0
  7 18  1  0  0  0  0
  7 19  1  0  0  0  0
  8  9  1  0  0  0  0
  8 20  1  0  0  0  0
  9 10  1  0  0  0  0
  9 21  1  0  0  0  0
 10 11  1  0  0  0  0
 10 22  1  0  0  0  0
 11 23  1  0  0  0  0
  2 12  1  0  0  0  0
  4 12  1  0  0  0  0
  5 12  1  0  0  0  0
M  END
>  <pdb_header>
CRYST1   99.371   99.373   99.367  90.00  90.00  90.00 P 1           1 


$$$$
