top1_centroid
  PyMOL2.3          3D                             0

 22 22  0  0  0  0  0  0  0  0999 V2000
  -18.2762   14.7142   27.6058 N   0  0  0  0  0  0  0  0  0  0  0  0
  -16.7278   12.5306   23.9877 C   0  0  0  0  0  0  0  0  0  0  0  0
  -16.5768   11.3610   23.2189 O   0  0  0  0  0  0  0  0  0  0  0  0
  -17.9744   12.3905   24.8462 C   0  0  0  0  0  0  0  0  0  0  0  0
  -18.6041   15.4688   26.5923 N   0  0  0  0  0  0  0  0  0  0  0  0
  -18.2207   13.5082   25.8461 C   0  0  0  0  0  0  0  0  0  0  0  0
  -18.0441   13.4254   27.1427 C   0  0  0  0  0  0  0  0  0  0  0  0
  -18.1148   15.2322   28.9991 C   0  0  0  0  0  0  0  0  0  0  0  0
  -19.5294   15.7882   29.5821 C   0  0  0  0  0  0  0  0  0  0  0  0
  -18.7548   14.7406   25.5500 C   0  0  0  0  0  0  0  0  0  0  0  0
  -15.8998   11.6714   22.5998 H   0  0  0  0  0  0  0  0  0  0  0  0
  -15.8505   12.8253   24.5825 H   0  0  0  0  0  0  0  0  0  0  0  0
  -16.9964   13.4406   23.4483 H   0  0  0  0  0  0  0  0  0  0  0  0
  -18.8843   12.2690   24.2448 H   0  0  0  0  0  0  0  0  0  0  0  0
  -17.9940   11.4030   25.3362 H   0  0  0  0  0  0  0  0  0  0  0  0
  -17.5929   12.6487   27.7368 H   0  0  0  0  0  0  0  0  0  0  0  0
  -17.5909   14.5206   29.6434 H   0  0  0  0  0  0  0  0  0  0  0  0
  -17.4430   16.0942   29.0988 H   0  0  0  0  0  0  0  0  0  0  0  0
  -20.2367   14.9452   29.6398 H   0  0  0  0  0  0  0  0  0  0  0  0
  -20.0525   16.5323   28.9654 H   0  0  0  0  0  0  0  0  0  0  0  0
  -19.3421   16.1205   30.6137 H   0  0  0  0  0  0  0  0  0  0  0  0
  -19.0681   15.1752   24.6093 H   0  0  0  0  0  0  0  0  0  0  0  0
  1  8  1  0  0  0  0
  2  4  1  0  0  0  0
  2 12  1  0  0  0  0
  2 13  1  0  0  0  0
  2  3  2  0  0  0  0
  3 11  1  0  0  0  0
  4  6  1  0  0  0  0
  4 14  1  0  0  0  0
  4 15  1  0  0  0  0
  1  5  1  0  0  0  0
  6  7  1  0  0  0  0
  6 10  1  0  0  0  0
  1  7  1  0  0  0  0
  7 16  1  0  0  0  0
  8  9  1  0  0  0  0
  8 17  1  0  0  0  0
  8 18  1  0  0  0  0
  9 19  1  0  0  0  0
  9 20  1  0  0  0  0
  9 21  1  0  0  0  0
  5 10  1  0  0  0  0
 10 22  1  0  0  0  0
M  END
>  <pdb_header>
CRYST1   99.291   99.293   99.288  90.00  90.00  90.00 P 1           1 


$$$$
