top4_centroid
  PyMOL2.3          3D                             0

 22 22  0  0  0  0  0  0  0  0999 V2000
  -16.4466   19.4382   27.1580 N   0  0  0  0  0  0  0  0  0  0  0  0
  -13.4891   22.0619   25.0267 C   0  0  0  0  0  0  0  0  0  0  0  0
  -14.3186   22.2791   23.9215 O   0  0  0  0  0  0  0  0  0  0  0  0
  -14.1431   22.1816   26.3962 C   0  0  0  0  0  0  0  0  0  0  0  0
  -15.2558   18.8111   26.9851 N   0  0  0  0  0  0  0  0  0  0  0  0
  -14.9073   20.9884   26.8145 C   0  0  0  0  0  0  0  0  0  0  0  0
  -16.2246   20.8441   27.1384 C   0  0  0  0  0  0  0  0  0  0  0  0
  -17.6344   18.6979   27.6425 C   0  0  0  0  0  0  0  0  0  0  0  0
  -18.9206   19.5340   27.5291 C   0  0  0  0  0  0  0  0  0  0  0  0
  -14.3058   19.7094   26.7169 C   0  0  0  0  0  0  0  0  0  0  0  0
  -15.0625   21.6519   23.9089 H   0  0  0  0  0  0  0  0  0  0  0  0
  -12.9755   21.0960   24.9201 H   0  0  0  0  0  0  0  0  0  0  0  0
  -12.6691   22.7912   25.0819 H   0  0  0  0  0  0  0  0  0  0  0  0
  -13.3107   22.3278   27.0889 H   0  0  0  0  0  0  0  0  0  0  0  0
  -14.7898   23.0687   26.5000 H   0  0  0  0  0  0  0  0  0  0  0  0
  -16.9768   21.6079   27.2343 H   0  0  0  0  0  0  0  0  0  0  0  0
  -17.6361   17.7226   27.1440 H   0  0  0  0  0  0  0  0  0  0  0  0
  -17.4691   18.5372   28.7230 H   0  0  0  0  0  0  0  0  0  0  0  0
  -19.8283   19.0948   27.9629 H   0  0  0  0  0  0  0  0  0  0  0  0
  -19.0679   19.8830   26.4960 H   0  0  0  0  0  0  0  0  0  0  0  0
  -18.9019   20.4711   28.0922 H   0  0  0  0  0  0  0  0  0  0  0  0
  -13.3935   19.2608   26.3578 H   0  0  0  0  0  0  0  0  0  0  0  0
  1  8  1  0  0  0  0
  2  4  1  0  0  0  0
  2 12  1  0  0  0  0
  2 13  1  0  0  0  0
  2  3  2  0  0  0  0
  3 11  1  0  0  0  0
  4  6  1  0  0  0  0
  4 14  1  0  0  0  0
  4 15  1  0  0  0  0
  1  5  1  0  0  0  0
  6  7  1  0  0  0  0
  6 10  1  0  0  0  0
  1  7  1  0  0  0  0
  7 16  1  0  0  0  0
  8  9  1  0  0  0  0
  8 17  1  0  0  0  0
  8 18  1  0  0  0  0
  9 19  1  0  0  0  0
  9 20  1  0  0  0  0
  9 21  1  0  0  0  0
  5 10  1  0  0  0  0
 10 22  1  0  0  0  0
M  END
>  <pdb_header>
CRYST1   99.323   99.325   99.319  90.00  90.00  90.00 P 1           1 


$$$$
