
     RDKit          3D

 25 27  0  0  0  0  0  0  0  0999 V2000
  -22.3611   11.4889   27.0451 O   0  0  0  0  0  0  0  0  0  0  0  0
  -22.4830   12.6205   27.5104 C   0  0  0  0  0  0  0  0  0  0  0  0
  -21.3774   13.2434   28.0070 N   0  0  0  0  0  0  0  0  0  0  0  0
  -21.5329   14.1973   28.3725 H   0  0  0  0  0  0  0  0  0  0  0  0
  -20.0708   12.6764   28.0399 C   0  0  0  0  0  0  0  0  0  0  0  0
  -19.8485   12.1781   28.9807 H   0  0  0  0  0  0  0  0  0  0  0  0
  -18.9184   13.3639   27.3589 C   0  0  0  0  0  0  0  0  0  0  0  0
  -19.1075   14.2760   26.8061 H   0  0  0  0  0  0  0  0  0  0  0  0
  -17.9523   13.3317   27.8486 H   0  0  0  0  0  0  0  0  0  0  0  0
  -19.4630   12.0828   26.7994 C   0  0  0  0  0  0  0  0  0  0  0  0
  -18.8717   11.1822   26.9117 H   0  0  0  0  0  0  0  0  0  0  0  0
  -20.0302   12.1312   25.8769 H   0  0  0  0  0  0  0  0  0  0  0  0
  -23.7279   13.3511   27.5628 C   0  0  0  0  0  0  0  0  0  0  0  0
  -24.0089   14.4151   28.3828 C   0  0  0  0  0  0  0  0  0  0  0  0
  -25.3009   14.7616   28.0653 N   0  0  0  0  0  0  0  0  0  0  0  0
  -25.8373   13.9767   27.0934 N   0  0  0  0  0  0  0  0  0  0  0  0
  -24.8764   13.1329   26.8031 C   0  0  0  0  0  0  0  0  0  0  0  0
  -24.9751   12.3729   26.0682 H   0  0  0  0  0  0  0  0  0  0  0  0
  -25.9497   15.8242   28.7066 C   0  0  0  0  0  0  0  0  0  0  0  0
  -26.9437   16.0148   28.3952 H   0  0  0  0  0  0  0  0  0  0  0  0
  -25.2246   16.4879   29.6586 C   0  0  0  0  0  0  0  0  0  0  0  0
  -25.6454   17.3017   30.1890 H   0  0  0  0  0  0  0  0  0  0  0  0
  -23.8786   16.0967   29.9614 C   0  0  0  0  0  0  0  0  0  0  0  0
  -23.3371   16.6258   30.7030 H   0  0  0  0  0  0  0  0  0  0  0  0
  -23.2790   15.1056   29.3597 N   0  0  0  0  0  0  0  0  0  0  0  0
  1  2  2  0
  2  3  1  0
  2 13  1  0
  3  4  1  0
  3  5  1  0
  5  6  1  0
  5  7  1  0
  5 10  1  0
  7  8  1  0
  7  9  1  0
  7 10  1  0
 10 11  1  0
 10 12  1  0
 13 14  2  0
 13 17  1  0
 14 15  1  0
 14 25  1  0
 15 16  1  0
 15 19  1  0
 16 17  2  0
 17 18  1  0
 19 20  1  0
 19 21  2  0
 21 22  1  0
 21 23  1  0
 23 24  1  0
 23 25  2  0
M  END
$$$$
