top5_centroid
  PyMOL2.3          3D                             0

 26 26  0  0  0  0  0  0  0  0999 V2000
  -15.1560   19.0568   28.0109 N   0  0  0  0  0  0  0  0  0  0  0  0
  -16.1542   18.0107   28.2776 C   0  0  0  0  0  0  0  0  0  0  0  0
  -13.2037   20.1765   28.2404 O   0  0  0  0  0  0  0  0  0  0  0  0
  -17.2407   17.9923   27.2008 C   0  0  0  0  0  0  0  0  0  0  0  0
  -13.3872   17.9610   29.3640 O   0  0  0  0  0  0  0  0  0  0  0  0
  -18.0691   16.7270   27.4237 C   0  0  0  0  0  0  0  0  0  0  0  0
  -17.7517   15.5549   26.7210 C   0  0  0  0  0  0  0  0  0  0  0  0
  -18.6023   14.4015   26.8817 C   0  0  0  0  0  0  0  0  0  0  0  0
  -19.7583   14.3842   27.6892 C   0  0  0  0  0  0  0  0  0  0  0  0
  -20.0344   15.5964   28.3664 C   0  0  0  0  0  0  0  0  0  0  0  0
  -19.1951   16.7805   28.1405 C   0  0  0  0  0  0  0  0  0  0  0  0
  -14.7648   20.2085   30.3335 C   0  0  0  0  0  0  0  0  0  0  0  0
  -20.6114   13.3034   27.9066 F   0  0  0  0  0  0  0  0  0  0  0  0
  -13.9829   19.2545   29.0320 S   0  0  0  0  0  0  0  0  0  0  0  0
  -14.6225   18.8153   27.1816 H   0  0  0  0  0  0  0  0  0  0  0  0
  -15.7519   17.0018   28.4331 H   0  0  0  0  0  0  0  0  0  0  0  0
  -16.6702   18.3112   29.1891 H   0  0  0  0  0  0  0  0  0  0  0  0
  -17.8184   18.8915   27.4306 H   0  0  0  0  0  0  0  0  0  0  0  0
  -16.8089   18.0840   26.2032 H   0  0  0  0  0  0  0  0  0  0  0  0
  -16.8873   15.4764   26.0612 H   0  0  0  0  0  0  0  0  0  0  0  0
  -18.3590   13.5072   26.3162 H   0  0  0  0  0  0  0  0  0  0  0  0
  -20.8162   15.5647   29.1158 H   0  0  0  0  0  0  0  0  0  0  0  0
  -19.4464   17.6708   28.7100 H   0  0  0  0  0  0  0  0  0  0  0  0
  -15.6583   19.7417   30.7558 H   0  0  0  0  0  0  0  0  0  0  0  0
  -15.0450   21.1928   29.9271 H   0  0  0  0  0  0  0  0  0  0  0  0
  -13.9968   20.3671   31.1027 H   0  0  0  0  0  0  0  0  0  0  0  0
  1  2  1  0  0  0  0
  1 15  1  0  0  0  0
  2  4  1  0  0  0  0
  2 16  1  0  0  0  0
  2 17  1  0  0  0  0
  3 14  1  0  0  0  0
  4  6  1  0  0  0  0
  4 18  1  0  0  0  0
  4 19  1  0  0  0  0
  6  7  1  0  0  0  0
  6 11  1  0  0  0  0
  7  8  1  0  0  0  0
  7 20  1  0  0  0  0
  8  9  1  0  0  0  0
  8 21  1  0  0  0  0
  9 10  1  0  0  0  0
  9 13  1  0  0  0  0
 10 11  1  0  0  0  0
 10 22  1  0  0  0  0
 11 23  1  0  0  0  0
 12 24  1  0  0  0  0
 12 25  1  0  0  0  0
 12 26  1  0  0  0  0
  1 14  1  0  0  0  0
  5 14  1  0  0  0  0
 12 14  1  0  0  0  0
M  END
>  <pdb_header>
CRYST1   99.341   99.343   99.337  90.00  90.00  90.00 P 1           1 


$$$$
