top1_centroid
  PyMOL2.3          3D                             0

 24 25  0  0  0  0  0  0  0  0999 V2000
  -18.7618   16.9998   26.8325 N   0  0  0  0  0  0  0  0  0  0  0  0
  -20.2082   18.8843   26.2884 C   0  0  0  0  0  0  0  0  0  0  0  0
  -18.9073   18.3900   26.5696 C   0  0  0  0  0  0  0  0  0  0  0  0
  -17.7116   14.1271   25.2590 N   0  0  0  0  0  0  0  0  0  0  0  0
  -17.5137   16.2274   26.8219 C   0  0  0  0  0  0  0  0  0  0  0  0
  -17.8075   12.7871   25.3836 N   0  0  0  0  0  0  0  0  0  0  0  0
  -17.7197   14.7775   26.4659 C   0  0  0  0  0  0  0  0  0  0  0  0
  -18.1514   12.5949   26.7380 C   0  0  0  0  0  0  0  0  0  0  0  0
  -18.2289   13.8127   27.2951 C   0  0  0  0  0  0  0  0  0  0  0  0
  -17.8958   19.2990   26.6512 C   0  0  0  0  0  0  0  0  0  0  0  0
  -18.0422   20.6742   26.3861 C   0  0  0  0  0  0  0  0  0  0  0  0
  -19.3146   21.1771   26.1364 C   0  0  0  0  0  0  0  0  0  0  0  0
  -20.4339   20.2778   26.2626 C   0  0  0  0  0  0  0  0  0  0  0  0
  -21.3030   18.0909   26.2628 F   0  0  0  0  0  0  0  0  0  0  0  0
  -19.4991   16.3183   26.8025 H   0  0  0  0  0  0  0  0  0  0  0  0
  -16.7325   16.6679   26.1939 H   0  0  0  0  0  0  0  0  0  0  0  0
  -16.9776   16.2990   27.7814 H   0  0  0  0  0  0  0  0  0  0  0  0
  -17.5244   14.5958   24.3857 H   0  0  0  0  0  0  0  0  0  0  0  0
  -18.4831   11.6309   27.0793 H   0  0  0  0  0  0  0  0  0  0  0  0
  -18.3926   13.9568   28.3578 H   0  0  0  0  0  0  0  0  0  0  0  0
  -16.8908   18.9442   26.8711 H   0  0  0  0  0  0  0  0  0  0  0  0
  -17.2353   21.4003   26.3467 H   0  0  0  0  0  0  0  0  0  0  0  0
  -19.5015   22.1991   25.8134 H   0  0  0  0  0  0  0  0  0  0  0  0
  -21.4259   20.6598   26.0355 H   0  0  0  0  0  0  0  0  0  0  0  0
  1  3  1  0  0  0  0
  1 15  1  0  0  0  0
  2 13  1  0  0  0  0
  2 14  1  0  0  0  0
  2  3  1  0  0  0  0
  3 10  1  0  0  0  0
  4  7  1  0  0  0  0
  4 18  1  0  0  0  0
  1  5  1  0  0  0  0
  5 16  1  0  0  0  0
  5 17  1  0  0  0  0
  4  6  1  0  0  0  0
  5  7  1  0  0  0  0
  6  8  1  0  0  0  0
  8  9  1  0  0  0  0
  8 19  1  0  0  0  0
  7  9  1  0  0  0  0
  9 20  1  0  0  0  0
 10 21  1  0  0  0  0
 10 11  1  0  0  0  0
 11 22  1  0  0  0  0
 11 12  1  0  0  0  0
 12 23  1  0  0  0  0
 12 13  1  0  0  0  0
 13 24  1  0  0  0  0
M  END
>  <pdb_header>
CRYST1   99.140   99.142   99.136  90.00  90.00  90.00 P 1           1 


$$$$
