top3_centroid
  PyMOL2.3          3D                             0

 31 32  0  0  0  0  0  0  0  0999 V2000
  -17.2613   15.4737   27.6873 N   0  0  0  0  0  0  0  0  0  0  0  0
  -18.3168   15.8079   28.5522 C   0  0  0  0  0  0  0  0  0  0  0  0
  -18.8735   14.9838   29.2282 O   0  0  0  0  0  0  0  0  0  0  0  0
  -16.5999   14.1903   27.6211 C   0  0  0  0  0  0  0  0  0  0  0  0
  -14.1830   13.9606   24.9333 N   0  0  0  0  0  0  0  0  0  0  0  0
  -15.4944   14.2556   26.6009 C   0  0  0  0  0  0  0  0  0  0  0  0
  -13.3844   14.2190   25.9692 N   0  0  0  0  0  0  0  0  0  0  0  0
  -15.5029   13.9069   25.2795 C   0  0  0  0  0  0  0  0  0  0  0  0
  -20.6535   18.6277   27.9936 N   0  0  0  0  0  0  0  0  0  0  0  0
  -13.5830   13.8095   23.5848 C   0  0  0  0  0  0  0  0  0  0  0  0
  -13.6752   12.4248   22.9546 C   0  0  0  0  0  0  0  0  0  0  0  0
  -14.1666   14.4392   27.0226 C   0  0  0  0  0  0  0  0  0  0  0  0
  -18.7395   17.2359   28.4682 C   0  0  0  0  0  0  0  0  0  0  0  0
  -20.1230   17.4895   28.3592 C   0  0  0  0  0  0  0  0  0  0  0  0
  -19.8575   19.6950   27.8084 C   0  0  0  0  0  0  0  0  0  0  0  0
  -18.4660   19.5610   28.0169 C   0  0  0  0  0  0  0  0  0  0  0  0
  -17.9179   18.2891   28.2376 C   0  0  0  0  0  0  0  0  0  0  0  0
  -17.0202   16.1651   26.9874 H   0  0  0  0  0  0  0  0  0  0  0  0
  -17.2759   13.3800   27.3278 H   0  0  0  0  0  0  0  0  0  0  0  0
  -16.1935   14.0452   28.6330 H   0  0  0  0  0  0  0  0  0  0  0  0
  -16.3221   13.7697   24.5913 H   0  0  0  0  0  0  0  0  0  0  0  0
  -14.1603   14.4721   22.9281 H   0  0  0  0  0  0  0  0  0  0  0  0
  -12.5442   14.1574   23.6331 H   0  0  0  0  0  0  0  0  0  0  0  0
  -14.7082   12.0868   22.8396 H   0  0  0  0  0  0  0  0  0  0  0  0
  -13.2190   11.6756   23.6151 H   0  0  0  0  0  0  0  0  0  0  0  0
  -13.1082   12.3632   22.0140 H   0  0  0  0  0  0  0  0  0  0  0  0
  -13.7594   14.5153   28.0209 H   0  0  0  0  0  0  0  0  0  0  0  0
  -20.8543   16.6800   28.3206 H   0  0  0  0  0  0  0  0  0  0  0  0
  -20.2716   20.6844   27.6125 H   0  0  0  0  0  0  0  0  0  0  0  0
  -17.8230   20.4406   28.0314 H   0  0  0  0  0  0  0  0  0  0  0  0
  -16.8439   18.1620   28.2798 H   0  0  0  0  0  0  0  0  0  0  0  0
  1  2  1  0  0  0  0
  1 18  1  0  0  0  0
  2  3  2  0  0  0  0
  2 13  1  0  0  0  0
  1  4  1  0  0  0  0
  4 19  1  0  0  0  0
  4 20  1  0  0  0  0
  5  7  1  0  0  0  0
  5  8  1  0  0  0  0
  4  6  1  0  0  0  0
  7 12  1  0  0  0  0
  6  8  1  0  0  0  0
  8 21  1  0  0  0  0
  9 15  1  0  0  0  0
  5 10  1  0  0  0  0
 10 22  1  0  0  0  0
 10 23  1  0  0  0  0
 10 11  1  0  0  0  0
 11 24  1  0  0  0  0
 11 25  1  0  0  0  0
 11 26  1  0  0  0  0
  6 12  1  0  0  0  0
 12 27  1  0  0  0  0
 13 14  1  0  0  0  0
 13 17  1  0  0  0  0
  9 14  1  0  0  0  0
 14 28  1  0  0  0  0
 15 16  1  0  0  0  0
 15 29  1  0  0  0  0
 16 17  1  0  0  0  0
 16 30  1  0  0  0  0
 17 31  1  0  0  0  0
M  END
>  <pdb_header>
CRYST1   99.011   99.013   99.007  90.00  90.00  90.00 P 1           1 


$$$$
