top2_centroid
  PyMOL2.3          3D                             0

 27 28  0  0  0  0  0  0  0  0999 V2000
  -19.6466   19.8000   27.0739 N   0  0  0  0  0  0  0  0  0  0  0  0
  -20.9260   20.6490   25.2571 C   0  0  0  0  0  0  0  0  0  0  0  0
  -20.8408   20.0920   26.5001 C   0  0  0  0  0  0  0  0  0  0  0  0
  -16.2357   17.2972   28.6585 N   0  0  0  0  0  0  0  0  0  0  0  0
  -19.5578   18.8824   28.2475 C   0  0  0  0  0  0  0  0  0  0  0  0
  -16.0575   18.5606   29.1954 N   0  0  0  0  0  0  0  0  0  0  0  0
  -18.1146   18.5125   28.5312 C   0  0  0  0  0  0  0  0  0  0  0  0
  -17.4972   17.2864   28.2870 C   0  0  0  0  0  0  0  0  0  0  0  0
  -18.3372   16.1096   27.6970 C   0  0  0  0  0  0  0  0  0  0  0  0
  -17.2065   19.3532   29.1565 C   0  0  0  0  0  0  0  0  0  0  0  0
  -21.9704   19.7190   27.1853 C   0  0  0  0  0  0  0  0  0  0  0  0
  -23.2176   19.8420   26.4824 C   0  0  0  0  0  0  0  0  0  0  0  0
  -23.3127   20.3625   25.1791 C   0  0  0  0  0  0  0  0  0  0  0  0
  -22.1539   20.8062   24.5436 C   0  0  0  0  0  0  0  0  0  0  0  0
  -19.7552   20.8864   24.6130 F   0  0  0  0  0  0  0  0  0  0  0  0
  -18.7763   19.9223   26.5743 H   0  0  0  0  0  0  0  0  0  0  0  0
  -20.0672   19.3941   29.0784 H   0  0  0  0  0  0  0  0  0  0  0  0
  -20.1207   17.9562   28.0945 H   0  0  0  0  0  0  0  0  0  0  0  0
  -18.6362   16.3631   26.6759 H   0  0  0  0  0  0  0  0  0  0  0  0
  -19.1734   15.9363   28.3891 H   0  0  0  0  0  0  0  0  0  0  0  0
  -17.6984   15.2134   27.6747 H   0  0  0  0  0  0  0  0  0  0  0  0
  -15.1972   18.9560   29.5432 H   0  0  0  0  0  0  0  0  0  0  0  0
  -17.2576   20.3892   29.4735 H   0  0  0  0  0  0  0  0  0  0  0  0
  -22.0116   19.3005   28.1890 H   0  0  0  0  0  0  0  0  0  0  0  0
  -24.1080   19.5277   27.0115 H   0  0  0  0  0  0  0  0  0  0  0  0
  -24.2307   20.4360   24.6155 H   0  0  0  0  0  0  0  0  0  0  0  0
  -22.2980   21.2352   23.5531 H   0  0  0  0  0  0  0  0  0  0  0  0
  1  3  1  0  0  0  0
  1 16  1  0  0  0  0
  2 14  1  0  0  0  0
  2 15  1  0  0  0  0
  2  3  1  0  0  0  0
  3 11  1  0  0  0  0
  4  8  1  0  0  0  0
  1  5  1  0  0  0  0
  5 17  1  0  0  0  0
  5 18  1  0  0  0  0
  4  6  1  0  0  0  0
  6 10  1  0  0  0  0
  6 22  1  0  0  0  0
  5  7  1  0  0  0  0
  7  8  1  0  0  0  0
  8  9  1  0  0  0  0
  9 19  1  0  0  0  0
  9 20  1  0  0  0  0
  9 21  1  0  0  0  0
  7 10  1  0  0  0  0
 10 23  1  0  0  0  0
 11 24  1  0  0  0  0
 11 12  1  0  0  0  0
 12 25  1  0  0  0  0
 12 13  1  0  0  0  0
 13 26  1  0  0  0  0
 13 14  1  0  0  0  0
 14 27  1  0  0  0  0
M  END
>  <pdb_header>
CRYST1   99.248   99.250   99.244  90.00  90.00  90.00 P 1           1 


$$$$
