top5_centroid
  PyMOL2.3          3D                             0

 19 19  0  0  0  0  0  0  0  0999 V2000
  -18.5989   17.7651   27.2467 N   0  0  0  0  0  0  0  0  0  0  0  0
  -20.3792   18.8879   27.5871 C   0  0  0  0  0  0  0  0  0  0  0  0
  -18.7671   14.7528   27.8779 O   0  0  0  0  0  0  0  0  0  0  0  0
  -19.8168   17.6431   27.8489 C   0  0  0  0  0  0  0  0  0  0  0  0
  -18.4905   18.9595   26.4846 N   0  0  0  0  0  0  0  0  0  0  0  0
  -17.5355   16.7890   27.3595 C   0  0  0  0  0  0  0  0  0  0  0  0
  -17.9290   15.3632   26.9087 C   0  0  0  0  0  0  0  0  0  0  0  0
  -18.4411   13.3500   28.0955 C   0  0  0  0  0  0  0  0  0  0  0  0
  -19.6150   19.6408   26.6910 C   0  0  0  0  0  0  0  0  0  0  0  0
  -22.0240   19.5978   28.2774 B   0  0  0  0  0  0  0  0  0  0  0  0
  -20.0359   16.7525   28.4239 H   0  0  0  0  0  0  0  0  0  0  0  0
  -16.6815   17.2779   26.8670 H   0  0  0  0  0  0  0  0  0  0  0  0
  -17.2466   16.7645   28.4130 H   0  0  0  0  0  0  0  0  0  0  0  0
  -16.9759   14.8233   26.8091 H   0  0  0  0  0  0  0  0  0  0  0  0
  -18.3550   15.3341   25.8988 H   0  0  0  0  0  0  0  0  0  0  0  0
  -18.5154   12.7459   27.1880 H   0  0  0  0  0  0  0  0  0  0  0  0
  -19.1328   12.9417   28.8443 H   0  0  0  0  0  0  0  0  0  0  0  0
  -17.4394   13.3431   28.5291 H   0  0  0  0  0  0  0  0  0  0  0  0
  -19.8165   20.6393   26.3383 H   0  0  0  0  0  0  0  0  0  0  0  0
  1  6  1  0  0  0  0
  2  9  1  0  0  0  0
  2 10  1  0  0  0  0
  3  8  1  0  0  0  0
  1  4  1  0  0  0  0
  2  4  1  0  0  0  0
  4 11  1  0  0  0  0
  1  5  1  0  0  0  0
  6  7  1  0  0  0  0
  6 12  1  0  0  0  0
  6 13  1  0  0  0  0
  3  7  1  0  0  0  0
  7 14  1  0  0  0  0
  7 15  1  0  0  0  0
  8 16  1  0  0  0  0
  8 17  1  0  0  0  0
  8 18  1  0  0  0  0
  5  9  1  0  0  0  0
  9 19  1  0  0  0  0
M  END
>  <pdb_header>
CRYST1   99.358   99.360   99.354  90.00  90.00  90.00 P 1           1 


$$$$
