top1_centroid
  PyMOL2.3          3D                             0

 32 33  0  0  0  0  0  0  0  0999 V2000
  -16.4608   13.8040   24.4919 N   0  0  0  0  0  0  0  0  0  0  0  0
  -16.6771   12.6195   24.0274 C   0  0  0  0  0  0  0  0  0  0  0  0
  -17.5790   11.7799   24.3366 O   0  0  0  0  0  0  0  0  0  0  0  0
  -15.7047   11.0425   22.4242 C   0  0  0  0  0  0  0  0  0  0  0  0
  -21.7477   20.0153   26.5378 N   0  0  0  0  0  0  0  0  0  0  0  0
  -15.7304   12.3119   23.0633 O   0  0  0  0  0  0  0  0  0  0  0  0
  -17.2307   14.4742   25.4435 C   0  0  0  0  0  0  0  0  0  0  0  0
  -16.5358   15.4785   26.2195 C   0  0  0  0  0  0  0  0  0  0  0  0
  -17.2520   16.2018   27.0870 C   0  0  0  0  0  0  0  0  0  0  0  0
  -18.5677   16.0896   27.3328 C   0  0  0  0  0  0  0  0  0  0  0  0
  -19.3526   16.9621   28.3905 C   0  0  0  0  0  0  0  0  0  0  0  0
  -20.2824   17.9912   27.7768 C   0  0  0  0  0  0  0  0  0  0  0  0
  -21.6999   18.0407   27.8702 C   0  0  0  0  0  0  0  0  0  0  0  0
  -22.3838   19.1010   27.2787 C   0  0  0  0  0  0  0  0  0  0  0  0
  -20.4015   20.0068   26.4150 C   0  0  0  0  0  0  0  0  0  0  0  0
  -19.6342   19.0107   27.0528 C   0  0  0  0  0  0  0  0  0  0  0  0
  -19.2755   15.0304   26.6844 C   0  0  0  0  0  0  0  0  0  0  0  0
  -18.6056   14.2693   25.6890 C   0  0  0  0  0  0  0  0  0  0  0  0
  -14.8590   11.0041   21.7237 H   0  0  0  0  0  0  0  0  0  0  0  0
  -16.5687   11.0204   21.7456 H   0  0  0  0  0  0  0  0  0  0  0  0
  -15.6912   10.2423   23.1721 H   0  0  0  0  0  0  0  0  0  0  0  0
  -15.5503   14.1512   24.2233 H   0  0  0  0  0  0  0  0  0  0  0  0
  -15.5010   15.7796   26.0751 H   0  0  0  0  0  0  0  0  0  0  0  0
  -16.7538   17.0714   27.4958 H   0  0  0  0  0  0  0  0  0  0  0  0
  -18.6524   17.4772   29.0550 H   0  0  0  0  0  0  0  0  0  0  0  0
  -19.9398   16.3179   29.0564 H   0  0  0  0  0  0  0  0  0  0  0  0
  -22.2671   17.2862   28.4035 H   0  0  0  0  0  0  0  0  0  0  0  0
  -23.4580   19.2863   27.3235 H   0  0  0  0  0  0  0  0  0  0  0  0
  -19.9585   20.8576   25.9008 H   0  0  0  0  0  0  0  0  0  0  0  0
  -18.5792   18.9905   26.7962 H   0  0  0  0  0  0  0  0  0  0  0  0
  -20.3365   14.8756   26.8659 H   0  0  0  0  0  0  0  0  0  0  0  0
  -19.0908   13.4248   25.2195 H   0  0  0  0  0  0  0  0  0  0  0  0
  1  7  1  0  0  0  0
  1 22  1  0  0  0  0
  1  2  1  0  0  0  0
  2  3  2  0  0  0  0
  4  6  1  0  0  0  0
  4 19  1  0  0  0  0
  4 20  1  0  0  0  0
  4 21  1  0  0  0  0
  5 15  1  0  0  0  0
  2  6  1  0  0  0  0
  7  8  1  0  0  0  0
  7 18  1  0  0  0  0
  8  9  1  0  0  0  0
  8 23  1  0  0  0  0
  9 10  1  0  0  0  0
  9 24  1  0  0  0  0
 10 11  1  0  0  0  0
 11 12  1  0  0  0  0
 11 25  1  0  0  0  0
 11 26  1  0  0  0  0
 12 13  1  0  0  0  0
 12 16  1  0  0  0  0
 13 14  1  0  0  0  0
 13 27  1  0  0  0  0
  5 14  1  0  0  0  0
 14 28  1  0  0  0  0
 15 16  1  0  0  0  0
 15 29  1  0  0  0  0
 16 30  1  0  0  0  0
 10 17  1  0  0  0  0
 17 31  1  0  0  0  0
 17 18  1  0  0  0  0
 18 32  1  0  0  0  0
M  END
>  <pdb_header>
CRYST1   99.046   99.048   99.042  90.00  90.00  90.00 P 1           1 


$$$$
