top2_centroid
  PyMOL2.3          3D                             0

 39 40  0  0  0  0  0  0  0  0999 V2000
  -16.4111   18.9109   27.0969 N   0  0  0  0  0  0  0  0  0  0  0  0
  -17.6849   18.4341   27.4188 C   0  0  0  0  0  0  0  0  0  0  0  0
  -18.6747   19.1919   27.6021 O   0  0  0  0  0  0  0  0  0  0  0  0
  -17.9528   16.9304   27.4400 C   0  0  0  0  0  0  0  0  0  0  0  0
  -13.8171   19.9140   26.0289 N   0  0  0  0  0  0  0  0  0  0  0  0
  -17.8140   16.3578   26.1472 O   0  0  0  0  0  0  0  0  0  0  0  0
  -18.1179   15.0010   25.8588 C   0  0  0  0  0  0  0  0  0  0  0  0
  -17.6927   14.4122   24.6654 C   0  0  0  0  0  0  0  0  0  0  0  0
  -18.0162   13.0601   24.3912 C   0  0  0  0  0  0  0  0  0  0  0  0
  -18.8601   12.3133   25.2598 C   0  0  0  0  0  0  0  0  0  0  0  0
  -19.1888   10.8899   24.8838 C   0  0  0  0  0  0  0  0  0  0  0  0
  -19.2439   12.9163   26.4689 C   0  0  0  0  0  0  0  0  0  0  0  0
  -18.9250   14.3022   26.7742 C   0  0  0  0  0  0  0  0  0  0  0  0
  -16.2032   20.3044   26.5961 C   0  0  0  0  0  0  0  0  0  0  0  0
  -14.7961   20.8439   26.6303 C   0  0  0  0  0  0  0  0  0  0  0  0
  -12.3809   20.3654   26.2557 C   0  0  0  0  0  0  0  0  0  0  0  0
  -13.9854   18.6283   26.7412 C   0  0  0  0  0  0  0  0  0  0  0  0
  -15.3373   18.0522   26.5849 C   0  0  0  0  0  0  0  0  0  0  0  0
  -17.3306   16.4925   28.2192 H   0  0  0  0  0  0  0  0  0  0  0  0
  -18.9746   16.7496   27.8042 H   0  0  0  0  0  0  0  0  0  0  0  0
  -17.0219   14.8723   23.9570 H   0  0  0  0  0  0  0  0  0  0  0  0
  -17.6657   12.6599   23.4485 H   0  0  0  0  0  0  0  0  0  0  0  0
  -18.8650   10.2588   25.7327 H   0  0  0  0  0  0  0  0  0  0  0  0
  -20.2588   10.8057   24.6793 H   0  0  0  0  0  0  0  0  0  0  0  0
  -18.7357   10.5627   23.9356 H   0  0  0  0  0  0  0  0  0  0  0  0
  -19.8804   12.3686   27.1640 H   0  0  0  0  0  0  0  0  0  0  0  0
  -19.1284   14.6552   27.7785 H   0  0  0  0  0  0  0  0  0  0  0  0
  -16.7468   20.3553   25.6370 H   0  0  0  0  0  0  0  0  0  0  0  0
  -16.7296   20.9215   27.3363 H   0  0  0  0  0  0  0  0  0  0  0  0
  -14.5684   21.0266   27.6786 H   0  0  0  0  0  0  0  0  0  0  0  0
  -14.7458   21.7567   26.0246 H   0  0  0  0  0  0  0  0  0  0  0  0
  -14.0146   19.7882   25.0373 H   0  0  0  0  0  0  0  0  0  0  0  0
  -12.1130   20.6075   27.2881 H   0  0  0  0  0  0  0  0  0  0  0  0
  -11.7874   19.4967   25.9697 H   0  0  0  0  0  0  0  0  0  0  0  0
  -12.3042   21.2228   25.6006 H   0  0  0  0  0  0  0  0  0  0  0  0
  -13.7360   18.5891   27.7968 H   0  0  0  0  0  0  0  0  0  0  0  0
  -13.2924   17.9238   26.2823 H   0  0  0  0  0  0  0  0  0  0  0  0
  -15.2982   17.1174   27.1650 H   0  0  0  0  0  0  0  0  0  0  0  0
  -15.5518   17.6934   25.5709 H   0  0  0  0  0  0  0  0  0  0  0  0
  1 14  1  0  0  0  0
  1 18  1  0  0  0  0
  1  2  1  0  0  0  0
  2  3  2  0  0  0  0
  2  4  1  0  0  0  0
  4 19  1  0  0  0  0
  4 20  1  0  0  0  0
  5 16  1  0  0  0  0
  5 17  1  0  0  0  0
  5 32  1  0  0  0  0
  4  6  1  0  0  0  0
  6  7  1  0  0  0  0
  7  8  1  0  0  0  0
  8 21  1  0  0  0  0
  8  9  1  0  0  0  0
  9 22  1  0  0  0  0
  9 10  1  0  0  0  0
 10 12  1  0  0  0  0
 10 11  1  0  0  0  0
 11 23  1  0  0  0  0
 11 24  1  0  0  0  0
 11 25  1  0  0  0  0
 12 13  1  0  0  0  0
 12 26  1  0  0  0  0
  7 13  1  0  0  0  0
 13 27  1  0  0  0  0
 14 15  1  0  0  0  0
 14 28  1  0  0  0  0
 14 29  1  0  0  0  0
  5 15  1  0  0  0  0
 15 30  1  0  0  0  0
 15 31  1  0  0  0  0
 16 33  1  0  0  0  0
 16 34  1  0  0  0  0
 16 35  1  0  0  0  0
 17 18  1  0  0  0  0
 17 36  1  0  0  0  0
 17 37  1  0  0  0  0
 18 38  1  0  0  0  0
 18 39  1  0  0  0  0
M  END
>  <pdb_header>
CRYST1   98.984   98.986   98.980  90.00  90.00  90.00 P 1           1 


$$$$
