top1_centroid
  PyMOL2.3          3D                             0

 30 31  0  0  0  0  0  0  0  0999 V2000
  -17.7324   13.5898   26.7885 N   0  0  0  0  0  0  0  0  0  0  0  0
  -16.8010   11.2691   23.3966 C   0  0  0  0  0  0  0  0  0  0  0  0
  -20.9844   15.7604   30.0066 O   0  0  0  0  0  0  0  0  0  0  0  0
  -16.2797   12.5593   23.5399 C   0  0  0  0  0  0  0  0  0  0  0  0
  -19.2888   14.5888   29.0544 N   0  0  0  0  0  0  0  0  0  0  0  0
  -16.4652   13.3971   24.7335 C   0  0  0  0  0  0  0  0  0  0  0  0
  -20.0762   14.0540   31.1551 N   0  0  0  0  0  0  0  0  0  0  0  0
  -17.3677   12.8962   25.6508 C   0  0  0  0  0  0  0  0  0  0  0  0
  -18.4651   14.8694   26.6614 C   0  0  0  0  0  0  0  0  0  0  0  0
  -19.5068   15.0949   27.6991 C   0  0  0  0  0  0  0  0  0  0  0  0
  -20.1522   14.9179   30.0831 C   0  0  0  0  0  0  0  0  0  0  0  0
  -17.9361   14.0177   29.2950 C   0  0  0  0  0  0  0  0  0  0  0  0
  -17.5100   13.0298   28.1426 C   0  0  0  0  0  0  0  0  0  0  0  0
  -17.9477   11.6071   25.4827 C   0  0  0  0  0  0  0  0  0  0  0  0
  -17.5664   10.7603   24.4438 C   0  0  0  0  0  0  0  0  0  0  0  0
  -16.4498   10.6029   22.2774 F   0  0  0  0  0  0  0  0  0  0  0  0
  -15.5836   12.9690   22.8215 H   0  0  0  0  0  0  0  0  0  0  0  0
  -15.8982   14.3139   24.8160 H   0  0  0  0  0  0  0  0  0  0  0  0
  -17.6660   15.6197   26.7546 H   0  0  0  0  0  0  0  0  0  0  0  0
  -18.9236   15.0689   25.6846 H   0  0  0  0  0  0  0  0  0  0  0  0
  -20.4898   14.7645   27.3285 H   0  0  0  0  0  0  0  0  0  0  0  0
  -19.3884   16.1840   27.7936 H   0  0  0  0  0  0  0  0  0  0  0  0
  -20.7465   14.1297   31.9119 H   0  0  0  0  0  0  0  0  0  0  0  0
  -19.4909   13.2395   31.0144 H   0  0  0  0  0  0  0  0  0  0  0  0
  -17.2976   14.8948   29.4337 H   0  0  0  0  0  0  0  0  0  0  0  0
  -17.9425   13.4110   30.2035 H   0  0  0  0  0  0  0  0  0  0  0  0
  -18.0402   12.0730   28.1588 H   0  0  0  0  0  0  0  0  0  0  0  0
  -16.4735   12.7254   28.3355 H   0  0  0  0  0  0  0  0  0  0  0  0
  -18.6193   11.2731   26.2642 H   0  0  0  0  0  0  0  0  0  0  0  0
  -17.9083    9.7280   24.4172 H   0  0  0  0  0  0  0  0  0  0  0  0
  1  9  1  0  0  0  0
  1 13  1  0  0  0  0
  2 15  1  0  0  0  0
  2 16  1  0  0  0  0
  2  4  1  0  0  0  0
  4 17  1  0  0  0  0
  5 11  1  0  0  0  0
  4  6  1  0  0  0  0
  6  8  1  0  0  0  0
  6 18  1  0  0  0  0
  7 23  1  0  0  0  0
  7 24  1  0  0  0  0
  1  8  1  0  0  0  0
  9 10  1  0  0  0  0
  9 19  1  0  0  0  0
  9 20  1  0  0  0  0
  5 10  1  0  0  0  0
 10 21  1  0  0  0  0
 10 22  1  0  0  0  0
  3 11  1  0  0  0  0
  7 11  1  0  0  0  0
  5 12  1  0  0  0  0
 12 25  1  0  0  0  0
 12 26  1  0  0  0  0
 12 13  1  0  0  0  0
 13 27  1  0  0  0  0
 13 28  1  0  0  0  0
  8 14  1  0  0  0  0
 14 29  1  0  0  0  0
 14 15  1  0  0  0  0
 15 30  1  0  0  0  0
M  END
>  <pdb_header>
CRYST1   99.149   99.151   99.145  90.00  90.00  90.00 P 1           1 


$$$$
