top3_centroid
  PyMOL2.3          3D                             0

 30 31  0  0  0  0  0  0  0  0999 V2000
  -21.8802   18.3802   27.4397 N   0  0  0  0  0  0  0  0  0  0  0  0
  -22.8911   17.9020   28.4387 C   0  0  0  0  0  0  0  0  0  0  0  0
  -23.7907   18.9709   29.0120 C   0  0  0  0  0  0  0  0  0  0  0  0
  -19.5501   18.7642   27.2173 N   0  0  0  0  0  0  0  0  0  0  0  0
  -22.4375   19.0291   26.2105 C   0  0  0  0  0  0  0  0  0  0  0  0
  -19.5819   20.0966   26.9668 N   0  0  0  0  0  0  0  0  0  0  0  0
  -23.4057   18.1469   25.4459 C   0  0  0  0  0  0  0  0  0  0  0  0
  -17.4205   19.2612   27.2212 N   0  0  0  0  0  0  0  0  0  0  0  0
  -20.6111   17.8973   27.3967 C   0  0  0  0  0  0  0  0  0  0  0  0
  -17.8825   17.0124   27.4633 N   0  0  0  0  0  0  0  0  0  0  0  0
  -18.2580   20.3511   27.0032 C   0  0  0  0  0  0  0  0  0  0  0  0
  -18.3259   18.2980   27.4269 C   0  0  0  0  0  0  0  0  0  0  0  0
  -18.8405   16.1309   27.7319 C   0  0  0  0  0  0  0  0  0  0  0  0
  -18.5838   14.6983   27.9804 C   0  0  0  0  0  0  0  0  0  0  0  0
  -20.2580   16.6298   27.8122 C   0  0  0  0  0  0  0  0  0  0  0  0
  -23.4488   17.1797   27.8226 H   0  0  0  0  0  0  0  0  0  0  0  0
  -22.4266   17.2945   29.2160 H   0  0  0  0  0  0  0  0  0  0  0  0
  -24.2843   18.5438   29.8972 H   0  0  0  0  0  0  0  0  0  0  0  0
  -24.5183   19.3872   28.3097 H   0  0  0  0  0  0  0  0  0  0  0  0
  -23.0859   19.7893   29.1973 H   0  0  0  0  0  0  0  0  0  0  0  0
  -22.9791   19.9330   26.5170 H   0  0  0  0  0  0  0  0  0  0  0  0
  -21.6057   19.3257   25.5615 H   0  0  0  0  0  0  0  0  0  0  0  0
  -23.0532   17.1143   25.3116 H   0  0  0  0  0  0  0  0  0  0  0  0
  -23.6531   18.5872   24.4692 H   0  0  0  0  0  0  0  0  0  0  0  0
  -24.3598   18.0222   25.9623 H   0  0  0  0  0  0  0  0  0  0  0  0
  -17.8493   21.3505   26.8540 H   0  0  0  0  0  0  0  0  0  0  0  0
  -19.1332   14.3523   28.8564 H   0  0  0  0  0  0  0  0  0  0  0  0
  -17.4975   14.5150   28.0339 H   0  0  0  0  0  0  0  0  0  0  0  0
  -18.9316   14.1051   27.1233 H   0  0  0  0  0  0  0  0  0  0  0  0
  -21.0068   15.9417   28.1611 H   0  0  0  0  0  0  0  0  0  0  0  0
  1  5  1  0  0  0  0
  1  9  1  0  0  0  0
  1  2  1  0  0  0  0
  2 16  1  0  0  0  0
  2 17  1  0  0  0  0
  2  3  1  0  0  0  0
  3 18  1  0  0  0  0
  3 19  1  0  0  0  0
  3 20  1  0  0  0  0
  4  6  1  0  0  0  0
  4 12  1  0  0  0  0
  5  7  1  0  0  0  0
  5 21  1  0  0  0  0
  5 22  1  0  0  0  0
  6 11  1  0  0  0  0
  7 23  1  0  0  0  0
  7 24  1  0  0  0  0
  7 25  1  0  0  0  0
  8 12  1  0  0  0  0
  4  9  1  0  0  0  0
  9 15  1  0  0  0  0
 10 13  1  0  0  0  0
  8 11  1  0  0  0  0
 11 26  1  0  0  0  0
 10 12  1  0  0  0  0
 13 14  1  0  0  0  0
 14 27  1  0  0  0  0
 14 28  1  0  0  0  0
 14 29  1  0  0  0  0
 13 15  1  0  0  0  0
 15 30  1  0  0  0  0
M  END
>  <pdb_header>
CRYST1   99.269   99.271   99.265  90.00  90.00  90.00 P 1           1 


$$$$
