top2_centroid
  PyMOL2.3          3D                             0

 22 22  0  0  0  0  0  0  0  0999 V2000
  -18.9808   15.4114   27.8144 N   0  0  0  0  0  0  0  0  0  0  0  0
  -19.6997   19.9309   27.8756 C   0  0  0  0  0  0  0  0  0  0  0  0
  -21.0939   19.8050   28.0995 O   0  0  0  0  0  0  0  0  0  0  0  0
  -19.1618   18.8521   26.9117 C   0  0  0  0  0  0  0  0  0  0  0  0
  -20.3298   15.5505   27.8535 N   0  0  0  0  0  0  0  0  0  0  0  0
  -19.3170   17.4193   27.2692 C   0  0  0  0  0  0  0  0  0  0  0  0
  -18.3413   16.5147   27.3677 C   0  0  0  0  0  0  0  0  0  0  0  0
  -18.5027   14.0661   28.1378 C   0  0  0  0  0  0  0  0  0  0  0  0
  -18.0167   13.3492   26.8428 C   0  0  0  0  0  0  0  0  0  0  0  0
  -20.5665   16.8498   27.5530 C   0  0  0  0  0  0  0  0  0  0  0  0
  -21.3014   20.3566   28.8775 H   0  0  0  0  0  0  0  0  0  0  0  0
  -19.4683   20.8947   27.3905 H   0  0  0  0  0  0  0  0  0  0  0  0
  -19.1419   19.9194   28.8173 H   0  0  0  0  0  0  0  0  0  0  0  0
  -19.6212   18.9343   25.9260 H   0  0  0  0  0  0  0  0  0  0  0  0
  -18.0890   19.0539   26.7583 H   0  0  0  0  0  0  0  0  0  0  0  0
  -17.2906   16.4542   27.0912 H   0  0  0  0  0  0  0  0  0  0  0  0
  -17.6980   14.1965   28.8738 H   0  0  0  0  0  0  0  0  0  0  0  0
  -19.3194   13.4146   28.4497 H   0  0  0  0  0  0  0  0  0  0  0  0
  -18.8567   13.1303   26.1676 H   0  0  0  0  0  0  0  0  0  0  0  0
  -17.7799   12.3227   27.1265 H   0  0  0  0  0  0  0  0  0  0  0  0
  -17.1750   13.7322   26.2558 H   0  0  0  0  0  0  0  0  0  0  0  0
  -21.5169   17.3503   27.6361 H   0  0  0  0  0  0  0  0  0  0  0  0
  1  8  1  0  0  0  0
  2  4  1  0  0  0  0
  2 12  1  0  0  0  0
  2 13  1  0  0  0  0
  2  3  2  0  0  0  0
  3 11  1  0  0  0  0
  4  6  1  0  0  0  0
  4 14  1  0  0  0  0
  4 15  1  0  0  0  0
  1  5  1  0  0  0  0
  6  7  1  0  0  0  0
  6 10  1  0  0  0  0
  1  7  1  0  0  0  0
  7 16  1  0  0  0  0
  8  9  1  0  0  0  0
  8 17  1  0  0  0  0
  8 18  1  0  0  0  0
  9 19  1  0  0  0  0
  9 20  1  0  0  0  0
  9 21  1  0  0  0  0
  5 10  1  0  0  0  0
 10 22  1  0  0  0  0
M  END
>  <pdb_header>
CRYST1   99.323   99.325   99.319  90.00  90.00  90.00 P 1           1 


$$$$
