top3_centroid
  PyMOL2.3          3D                             0

 19 19  0  0  0  0  0  0  0  0999 V2000
  -21.6322   11.2007   28.2831 N   0  0  0  0  0  0  0  0  0  0  0  0
  -22.3602   11.1662   29.4938 C   0  0  0  0  0  0  0  0  0  0  0  0
  -23.4144   11.7660   29.6296 O   0  0  0  0  0  0  0  0  0  0  0  0
  -21.6781   12.3144   27.3019 C   0  0  0  0  0  0  0  0  0  0  0  0
  -18.6622   12.5267   25.4845 N   0  0  0  0  0  0  0  0  0  0  0  0
  -20.5923   12.2863   26.3550 C   0  0  0  0  0  0  0  0  0  0  0  0
  -19.3447   11.6039   24.6446 N   0  0  0  0  0  0  0  0  0  0  0  0
  -19.3894   12.9241   26.5497 C   0  0  0  0  0  0  0  0  0  0  0  0
  -20.5256   11.4299   25.1689 C   0  0  0  0  0  0  0  0  0  0  0  0
  -21.7194   10.3388   30.5938 C   0  0  0  0  0  0  0  0  0  0  0  0
  -20.8543   10.5799   28.1302 H   0  0  0  0  0  0  0  0  0  0  0  0
  -22.6782   12.3175   26.8472 H   0  0  0  0  0  0  0  0  0  0  0  0
  -21.4725   13.2188   27.8769 H   0  0  0  0  0  0  0  0  0  0  0  0
  -19.0756   13.5805   27.3480 H   0  0  0  0  0  0  0  0  0  0  0  0
  -17.7210   12.7801   25.2087 H   0  0  0  0  0  0  0  0  0  0  0  0
  -21.2333   10.8060   24.6363 H   0  0  0  0  0  0  0  0  0  0  0  0
  -22.2274   10.6885   31.5031 H   0  0  0  0  0  0  0  0  0  0  0  0
  -20.6516   10.5560   30.7115 H   0  0  0  0  0  0  0  0  0  0  0  0
  -21.8966    9.2559   30.5087 H   0  0  0  0  0  0  0  0  0  0  0  0
  1  4  1  0  0  0  0
  1 11  1  0  0  0  0
  1  2  1  0  0  0  0
  2 10  1  0  0  0  0
  2  3  2  0  0  0  0
  4  6  1  0  0  0  0
  4 12  1  0  0  0  0
  4 13  1  0  0  0  0
  5  7  1  0  0  0  0
  5 15  1  0  0  0  0
  6  8  1  0  0  0  0
  6  9  1  0  0  0  0
  7  9  1  0  0  0  0
  5  8  1  0  0  0  0
  8 14  1  0  0  0  0
  9 16  1  0  0  0  0
 10 17  1  0  0  0  0
 10 18  1  0  0  0  0
 10 19  1  0  0  0  0
M  END
>  <pdb_header>
CRYST1   99.262   99.264   99.258  90.00  90.00  90.00 P 1           1 


$$$$
