top2_centroid
  PyMOL2.3          3D                             0

 26 26  0  0  0  0  0  0  0  0999 V2000
  -19.4365   14.2868   28.2072 N   0  0  0  0  0  0  0  0  0  0  0  0
  -20.2673   12.8132   26.5710 C   0  0  0  0  0  0  0  0  0  0  0  0
  -17.8661   16.5749   27.9103 O   0  0  0  0  0  0  0  0  0  0  0  0
  -19.3364   13.7369   26.9718 C   0  0  0  0  0  0  0  0  0  0  0  0
  -18.2093   13.9688   26.2421 N   0  0  0  0  0  0  0  0  0  0  0  0
  -19.9784   15.6718   28.3602 C   0  0  0  0  0  0  0  0  0  0  0  0
  -18.8939   16.6860   28.8269 C   0  0  0  0  0  0  0  0  0  0  0  0
  -21.1782   15.5167   29.3566 C   0  0  0  0  0  0  0  0  0  0  0  0
  -18.6138   13.7642   29.3330 C   0  0  0  0  0  0  0  0  0  0  0  0
  -17.9537   13.1725   25.1902 C   0  0  0  0  0  0  0  0  0  0  0  0
  -18.8451   12.1731   24.8020 C   0  0  0  0  0  0  0  0  0  0  0  0
  -20.0427   11.9899   25.4409 C   0  0  0  0  0  0  0  0  0  0  0  0
  -21.3290   12.5034   27.2748 F   0  0  0  0  0  0  0  0  0  0  0  0
  -18.6959   16.5267   29.8951 H   0  0  0  0  0  0  0  0  0  0  0  0
  -19.3529   17.6793   28.7642 H   0  0  0  0  0  0  0  0  0  0  0  0
  -17.8926   15.6714   27.5397 H   0  0  0  0  0  0  0  0  0  0  0  0
  -21.8244   16.3819   29.5388 H   0  0  0  0  0  0  0  0  0  0  0  0
  -20.7012   15.2363   30.3038 H   0  0  0  0  0  0  0  0  0  0  0  0
  -21.9175   14.8190   28.9627 H   0  0  0  0  0  0  0  0  0  0  0  0
  -17.8495   13.0929   28.9226 H   0  0  0  0  0  0  0  0  0  0  0  0
  -19.3038   13.2140   29.9880 H   0  0  0  0  0  0  0  0  0  0  0  0
  -17.9707   14.5277   29.7950 H   0  0  0  0  0  0  0  0  0  0  0  0
  -17.0359   13.4113   24.6461 H   0  0  0  0  0  0  0  0  0  0  0  0
  -18.5875   11.5548   23.9391 H   0  0  0  0  0  0  0  0  0  0  0  0
  -20.7611   11.2631   25.0700 H   0  0  0  0  0  0  0  0  0  0  0  0
  -20.2533   16.0461   27.3659 H   0  0  0  0  0  0  0  0  0  0  0  0
  1  4  1  0  0  0  0
  1  9  1  0  0  0  0
  2 12  1  0  0  0  0
  2 13  1  0  0  0  0
  3  7  1  0  0  0  0
  3 16  1  0  0  0  0
  2  4  1  0  0  0  0
  4  5  1  0  0  0  0
  1  6  1  0  0  0  0
  6  8  1  0  0  0  0
  6 26  1  0  0  0  0
  6  7  1  0  0  0  0
  7 14  1  0  0  0  0
  7 15  1  0  0  0  0
  8 17  1  0  0  0  0
  8 18  1  0  0  0  0
  8 19  1  0  0  0  0
  9 20  1  0  0  0  0
  9 21  1  0  0  0  0
  9 22  1  0  0  0  0
  5 10  1  0  0  0  0
 10 23  1  0  0  0  0
 10 11  1  0  0  0  0
 11 24  1  0  0  0  0
 11 12  1  0  0  0  0
 12 25  1  0  0  0  0
M  END
>  <pdb_header>
CRYST1   99.172   99.174   99.168  90.00  90.00  90.00 P 1           1 


$$$$
