top2_centroid
  PyMOL2.3          3D                             0

 23 23  0  0  0  0  0  0  0  0999 V2000
  -17.1614   14.0673   25.6044 N   0  0  0  0  0  0  0  0  0  0  0  0
  -18.0640   12.3867   28.5711 C   0  0  0  0  0  0  0  0  0  0  0  0
  -20.3970   13.5501   28.6996 O   0  0  0  0  0  0  0  0  0  0  0  0
  -18.5457   14.9553   27.4134 C   0  0  0  0  0  0  0  0  0  0  0  0
  -19.4615   12.7497   26.4079 O   0  0  0  0  0  0  0  0  0  0  0  0
  -17.5891   15.1429   26.3888 C   0  0  0  0  0  0  0  0  0  0  0  0
  -16.4724   14.2073   24.3239 C   0  0  0  0  0  0  0  0  0  0  0  0
  -17.1863   16.4336   26.1084 C   0  0  0  0  0  0  0  0  0  0  0  0
  -17.7094   17.5126   26.8375 C   0  0  0  0  0  0  0  0  0  0  0  0
  -18.6861   17.3327   27.8163 C   0  0  0  0  0  0  0  0  0  0  0  0
  -19.0944   16.0215   28.0852 C   0  0  0  0  0  0  0  0  0  0  0  0
  -19.3261   13.3271   27.7207 S   0  0  0  0  0  0  0  0  0  0  0  0
  -17.1186   12.3845   28.0250 H   0  0  0  0  0  0  0  0  0  0  0  0
  -18.4786   11.3719   28.5121 H   0  0  0  0  0  0  0  0  0  0  0  0
  -17.9369   12.6983   29.6156 H   0  0  0  0  0  0  0  0  0  0  0  0
  -17.9135   13.4101   25.4615 H   0  0  0  0  0  0  0  0  0  0  0  0
  -16.2698   13.2036   23.9272 H   0  0  0  0  0  0  0  0  0  0  0  0
  -15.4838   14.6707   24.4263 H   0  0  0  0  0  0  0  0  0  0  0  0
  -17.0284   14.7519   23.5558 H   0  0  0  0  0  0  0  0  0  0  0  0
  -16.4871   16.6915   25.3127 H   0  0  0  0  0  0  0  0  0  0  0  0
  -17.3959   18.5410   26.7035 H   0  0  0  0  0  0  0  0  0  0  0  0
  -19.1410   18.1195   28.4129 H   0  0  0  0  0  0  0  0  0  0  0  0
  -19.9202   15.9986   28.7919 H   0  0  0  0  0  0  0  0  0  0  0  0
  1  7  1  0  0  0  0
  1 16  1  0  0  0  0
  2 13  1  0  0  0  0
  2 14  1  0  0  0  0
  2 15  1  0  0  0  0
  3 12  1  0  0  0  0
  4  6  1  0  0  0  0
  4 11  1  0  0  0  0
  1  6  1  0  0  0  0
  6  8  1  0  0  0  0
  7 17  1  0  0  0  0
  7 18  1  0  0  0  0
  7 19  1  0  0  0  0
  8  9  1  0  0  0  0
  8 20  1  0  0  0  0
  9 10  1  0  0  0  0
  9 21  1  0  0  0  0
 10 11  1  0  0  0  0
 10 22  1  0  0  0  0
 11 23  1  0  0  0  0
  2 12  1  0  0  0  0
  4 12  1  0  0  0  0
  5 12  1  0  0  0  0
M  END
>  <pdb_header>
CRYST1   99.371   99.373   99.367  90.00  90.00  90.00 P 1           1 


$$$$
