top4_centroid
  PyMOL2.3          3D                             0

 27 28  0  0  0  0  0  0  0  0999 V2000
  -17.6008   14.5941   26.5010 N   0  0  0  0  0  0  0  0  0  0  0  0
  -19.4451   14.0980   28.0462 C   0  0  0  0  0  0  0  0  0  0  0  0
  -18.5278   14.9712   27.4399 C   0  0  0  0  0  0  0  0  0  0  0  0
  -15.2274   12.4032   23.2544 N   0  0  0  0  0  0  0  0  0  0  0  0
  -17.5858   13.3407   25.8006 C   0  0  0  0  0  0  0  0  0  0  0  0
  -14.8019   13.6948   23.5539 N   0  0  0  0  0  0  0  0  0  0  0  0
  -16.4018   13.2742   24.8369 C   0  0  0  0  0  0  0  0  0  0  0  0
  -16.2298   12.1969   24.0514 C   0  0  0  0  0  0  0  0  0  0  0  0
  -16.8582   10.8577   24.1642 C   0  0  0  0  0  0  0  0  0  0  0  0
  -15.6080   14.3031   24.4979 C   0  0  0  0  0  0  0  0  0  0  0  0
  -18.6222   16.3442   27.6545 C   0  0  0  0  0  0  0  0  0  0  0  0
  -19.5523   16.9526   28.4876 C   0  0  0  0  0  0  0  0  0  0  0  0
  -20.3958   16.0686   29.1295 C   0  0  0  0  0  0  0  0  0  0  0  0
  -20.3254   14.6572   28.9502 C   0  0  0  0  0  0  0  0  0  0  0  0
  -19.4143   12.7618   27.8458 F   0  0  0  0  0  0  0  0  0  0  0  0
  -17.0855   15.3756   26.1214 H   0  0  0  0  0  0  0  0  0  0  0  0
  -17.6338   12.5087   26.5278 H   0  0  0  0  0  0  0  0  0  0  0  0
  -18.5509   13.1181   25.3195 H   0  0  0  0  0  0  0  0  0  0  0  0
  -17.6676   10.7751   23.4357 H   0  0  0  0  0  0  0  0  0  0  0  0
  -17.2030   10.7154   25.1994 H   0  0  0  0  0  0  0  0  0  0  0  0
  -16.1820    9.9978   24.0885 H   0  0  0  0  0  0  0  0  0  0  0  0
  -14.0737   14.1461   23.0176 H   0  0  0  0  0  0  0  0  0  0  0  0
  -15.4759   15.3240   24.8414 H   0  0  0  0  0  0  0  0  0  0  0  0
  -17.9208   17.0528   27.2073 H   0  0  0  0  0  0  0  0  0  0  0  0
  -19.6890   18.0248   28.5434 H   0  0  0  0  0  0  0  0  0  0  0  0
  -21.1218   16.5368   29.7977 H   0  0  0  0  0  0  0  0  0  0  0  0
  -20.9517   13.9759   29.5253 H   0  0  0  0  0  0  0  0  0  0  0  0
  1  3  1  0  0  0  0
  1 16  1  0  0  0  0
  2 14  1  0  0  0  0
  2 15  1  0  0  0  0
  2  3  1  0  0  0  0
  3 11  1  0  0  0  0
  4  8  1  0  0  0  0
  1  5  1  0  0  0  0
  5 17  1  0  0  0  0
  5 18  1  0  0  0  0
  4  6  1  0  0  0  0
  6 10  1  0  0  0  0
  6 22  1  0  0  0  0
  5  7  1  0  0  0  0
  7  8  1  0  0  0  0
  8  9  1  0  0  0  0
  9 19  1  0  0  0  0
  9 20  1  0  0  0  0
  9 21  1  0  0  0  0
  7 10  1  0  0  0  0
 10 23  1  0  0  0  0
 11 24  1  0  0  0  0
 11 12  1  0  0  0  0
 12 25  1  0  0  0  0
 12 13  1  0  0  0  0
 13 26  1  0  0  0  0
 13 14  1  0  0  0  0
 14 27  1  0  0  0  0
M  END
>  <pdb_header>
CRYST1   99.166   99.168   99.162  90.00  90.00  90.00 P 1           1 


$$$$
