top2_centroid
  PyMOL2.3          3D                             0

 32 33  0  0  0  0  0  0  0  0999 V2000
  -18.3432   17.2846   26.7482 N   0  0  0  0  0  0  0  0  0  0  0  0
  -19.0048   16.0503   26.8607 C   0  0  0  0  0  0  0  0  0  0  0  0
  -20.2026   15.9436   26.8688 O   0  0  0  0  0  0  0  0  0  0  0  0
  -18.8626   18.5305   26.8398 C   0  0  0  0  0  0  0  0  0  0  0  0
  -20.1428   20.2465   26.9663 N   0  0  0  0  0  0  0  0  0  0  0  0
  -20.2033   18.8761   26.9715 C   0  0  0  0  0  0  0  0  0  0  0  0
  -18.8821   20.8052   27.1244 N   0  0  0  0  0  0  0  0  0  0  0  0
  -21.2684   21.1147   27.2316 C   0  0  0  0  0  0  0  0  0  0  0  0
  -21.7300   21.9834   25.9598 C   0  0  0  0  0  0  0  0  0  0  0  0
  -18.1461   19.7416   27.0890 C   0  0  0  0  0  0  0  0  0  0  0  0
  -18.1209   14.7890   26.7199 C   0  0  0  0  0  0  0  0  0  0  0  0
  -18.4813   13.5934   27.6957 C   0  0  0  0  0  0  0  0  0  0  0  0
  -18.8836   12.5103   26.7445 C   0  0  0  0  0  0  0  0  0  0  0  0
  -18.0961   12.6269   25.4768 C   0  0  0  0  0  0  0  0  0  0  0  0
  -17.9778   14.2232   25.3432 C   0  0  0  0  0  0  0  0  0  0  0  0
  -17.3301   17.2328   26.6705 H   0  0  0  0  0  0  0  0  0  0  0  0
  -21.0418   18.2066   27.1002 H   0  0  0  0  0  0  0  0  0  0  0  0
  -22.0643   20.4762   27.6222 H   0  0  0  0  0  0  0  0  0  0  0  0
  -20.9661   21.8449   27.9987 H   0  0  0  0  0  0  0  0  0  0  0  0
  -21.0058   22.6339   25.4501 H   0  0  0  0  0  0  0  0  0  0  0  0
  -22.6111   22.5482   26.2766 H   0  0  0  0  0  0  0  0  0  0  0  0
  -22.1837   21.2669   25.2544 H   0  0  0  0  0  0  0  0  0  0  0  0
  -17.0643   19.8280   27.1590 H   0  0  0  0  0  0  0  0  0  0  0  0
  -17.1693   15.2315   27.0172 H   0  0  0  0  0  0  0  0  0  0  0  0
  -17.6699   13.1310   28.2715 H   0  0  0  0  0  0  0  0  0  0  0  0
  -19.2288   13.9854   28.3959 H   0  0  0  0  0  0  0  0  0  0  0  0
  -18.7196   11.4832   27.1031 H   0  0  0  0  0  0  0  0  0  0  0  0
  -19.9578   12.6373   26.6228 H   0  0  0  0  0  0  0  0  0  0  0  0
  -18.6758   12.1966   24.6589 H   0  0  0  0  0  0  0  0  0  0  0  0
  -17.1210   12.1586   25.6388 H   0  0  0  0  0  0  0  0  0  0  0  0
  -18.6994   14.6607   24.6431 H   0  0  0  0  0  0  0  0  0  0  0  0
  -17.0293   14.2821   24.7948 H   0  0  0  0  0  0  0  0  0  0  0  0
  1  2  1  0  0  0  0
  1 16  1  0  0  0  0
  2  3  2  0  0  0  0
  2 11  1  0  0  0  0
  1  4  1  0  0  0  0
  5  6  1  0  0  0  0
  5  7  1  0  0  0  0
  4  6  1  0  0  0  0
  6 17  1  0  0  0  0
  7 10  1  0  0  0  0
  5  8  1  0  0  0  0
  8 18  1  0  0  0  0
  8 19  1  0  0  0  0
  8  9  1  0  0  0  0
  9 20  1  0  0  0  0
  9 21  1  0  0  0  0
  9 22  1  0  0  0  0
  4 10  1  0  0  0  0
 10 23  1  0  0  0  0
 11 12  1  0  0  0  0
 11 15  1  0  0  0  0
 11 24  1  0  0  0  0
 12 13  1  0  0  0  0
 12 25  1  0  0  0  0
 12 26  1  0  0  0  0
 13 14  1  0  0  0  0
 13 27  1  0  0  0  0
 13 28  1  0  0  0  0
 14 15  1  0  0  0  0
 14 29  1  0  0  0  0
 14 30  1  0  0  0  0
 15 31  1  0  0  0  0
 15 32  1  0  0  0  0
M  END
>  <pdb_header>
CRYST1   99.080   99.082   99.076  90.00  90.00  90.00 P 1           1 


$$$$
