
     RDKit          3D

 30 31  0  0  0  0  0  0  0  0999 V2000
  -17.8436   12.1580   25.7683 F   0  0  0  0  0  0  0  0  0  0  0  0
  -19.0498   12.1939   26.3527 C   0  0  0  0  0  0  0  0  0  0  0  0
  -19.4502   13.3593   26.9953 C   0  0  0  0  0  0  0  0  0  0  0  0
  -18.8075   14.2002   27.0226 H   0  0  0  0  0  0  0  0  0  0  0  0
  -20.7013   13.3956   27.6026 C   0  0  0  0  0  0  0  0  0  0  0  0
  -21.0222   14.2635   28.1149 H   0  0  0  0  0  0  0  0  0  0  0  0
  -21.5349   12.2696   27.5545 C   0  0  0  0  0  0  0  0  0  0  0  0
  -22.7835   12.3043   28.1619 N   0  0  0  0  0  0  0  0  0  0  0  0
  -22.9929   11.8492   29.5431 C   0  0  0  0  0  0  0  0  0  0  0  0
  -23.6051   10.9394   29.5286 H   0  0  0  0  0  0  0  0  0  0  0  0
  -22.0534   11.6103   30.0536 H   0  0  0  0  0  0  0  0  0  0  0  0
  -23.7007   12.9505   30.3480 C   0  0  0  0  0  0  0  0  0  0  0  0
  -23.0363   13.8162   30.4578 H   0  0  0  0  0  0  0  0  0  0  0  0
  -23.9236   12.5844   31.3555 H   0  0  0  0  0  0  0  0  0  0  0  0
  -24.9112   13.4365   29.6730 N   0  0  0  0  0  0  0  0  0  0  0  0
  -26.0972   13.4287   30.3551 C   0  0  0  0  0  0  0  0  0  0  0  0
  -26.2593   12.8818   31.4329 O   0  0  0  0  0  0  0  0  0  0  0  0
  -27.1129   14.0806   29.7838 N   0  0  0  0  0  0  0  0  0  0  0  0
  -27.0990   15.0959   29.9278 H   0  0  0  0  0  0  0  0  0  0  0  0
  -27.4313   13.7162   28.8834 H   0  0  0  0  0  0  0  0  0  0  0  0
  -24.6902   13.8697   28.2817 C   0  0  0  0  0  0  0  0  0  0  0  0
  -25.6272   14.1233   27.7816 H   0  0  0  0  0  0  0  0  0  0  0  0
  -24.0700   14.7723   28.3232 H   0  0  0  0  0  0  0  0  0  0  0  0
  -23.9872   12.7739   27.4632 C   0  0  0  0  0  0  0  0  0  0  0  0
  -23.7838   13.1408   26.4515 H   0  0  0  0  0  0  0  0  0  0  0  0
  -24.6662   11.9194   27.3483 H   0  0  0  0  0  0  0  0  0  0  0  0
  -21.1093   11.0999   26.9036 C   0  0  0  0  0  0  0  0  0  0  0  0
  -21.7349   10.2497   26.8572 H   0  0  0  0  0  0  0  0  0  0  0  0
  -19.8574   11.0643   26.2972 C   0  0  0  0  0  0  0  0  0  0  0  0
  -19.5183   10.1949   25.7975 H   0  0  0  0  0  0  0  0  0  0  0  0
  1  2  1  0
  2  3  1  0
  2 29  2  0
  3  4  1  0
  3  5  2  0
  5  6  1  0
  5  7  1  0
  7  8  1  0
  7 27  2  0
  8  9  1  0
  8 24  1  0
  9 10  1  0
  9 11  1  0
  9 12  1  0
 12 13  1  0
 12 14  1  0
 12 15  1  0
 15 16  1  0
 15 21  1  0
 16 17  2  0
 16 18  1  0
 18 19  1  0
 18 20  1  0
 21 22  1  0
 21 23  1  0
 21 24  1  0
 24 25  1  0
 24 26  1  0
 27 28  1  0
 27 29  1  0
 29 30  1  0
M  END
$$$$
