top2_centroid
  PyMOL2.3          3D                             0

 24 24  0  0  0  0  0  0  0  0999 V2000
  -15.0146   19.8759   26.8197 N   0  0  0  0  0  0  0  0  0  0  0  0
  -15.8793   17.5753   27.0754 C   0  0  0  0  0  0  0  0  0  0  0  0
  -15.0629   17.4255   28.2863 O   0  0  0  0  0  0  0  0  0  0  0  0
  -15.2449   18.5835   26.1555 C   0  0  0  0  0  0  0  0  0  0  0  0
  -12.7756   19.3041   27.3611 N   0  0  0  0  0  0  0  0  0  0  0  0
  -16.2748   20.7035   27.0159 C   0  0  0  0  0  0  0  0  0  0  0  0
  -13.7493   20.2820   27.1751 C   0  0  0  0  0  0  0  0  0  0  0  0
  -11.4175   19.6913   27.7257 C   0  0  0  0  0  0  0  0  0  0  0  0
  -11.2258   21.0513   28.0859 C   0  0  0  0  0  0  0  0  0  0  0  0
  -12.2780   22.0269   28.0617 C   0  0  0  0  0  0  0  0  0  0  0  0
  -13.5173   21.6716   27.5444 C   0  0  0  0  0  0  0  0  0  0  0  0
  -15.1894   18.2155   28.8454 H   0  0  0  0  0  0  0  0  0  0  0  0
  -15.9626   16.6204   26.5477 H   0  0  0  0  0  0  0  0  0  0  0  0
  -16.8510   17.9919   27.3871 H   0  0  0  0  0  0  0  0  0  0  0  0
  -15.8654   18.7122   25.2670 H   0  0  0  0  0  0  0  0  0  0  0  0
  -14.2692   18.2559   25.7908 H   0  0  0  0  0  0  0  0  0  0  0  0
  -16.2235   21.7292   26.6186 H   0  0  0  0  0  0  0  0  0  0  0  0
  -16.6989   20.7562   28.0329 H   0  0  0  0  0  0  0  0  0  0  0  0
  -17.1075   20.2941   26.4286 H   0  0  0  0  0  0  0  0  0  0  0  0
  -13.0242   18.3246   27.2830 H   0  0  0  0  0  0  0  0  0  0  0  0
  -10.6645   18.9157   27.8332 H   0  0  0  0  0  0  0  0  0  0  0  0
  -10.1886   21.3088   28.2636 H   0  0  0  0  0  0  0  0  0  0  0  0
  -12.0676   23.0878   28.1598 H   0  0  0  0  0  0  0  0  0  0  0  0
  -14.2966   22.4045   27.3878 H   0  0  0  0  0  0  0  0  0  0  0  0
  1  6  1  0  0  0  0
  1  7  1  0  0  0  0
  2  4  1  0  0  0  0
  2 13  1  0  0  0  0
  2 14  1  0  0  0  0
  2  3  2  0  0  0  0
  3 12  1  0  0  0  0
  1  4  1  0  0  0  0
  4 15  1  0  0  0  0
  4 16  1  0  0  0  0
  5  8  1  0  0  0  0
  5 20  1  0  0  0  0
  6 17  1  0  0  0  0
  6 18  1  0  0  0  0
  6 19  1  0  0  0  0
  5  7  1  0  0  0  0
  7 11  1  0  0  0  0
  8  9  1  0  0  0  0
  8 21  1  0  0  0  0
  9 10  1  0  0  0  0
  9 22  1  0  0  0  0
 10 11  1  0  0  0  0
 10 23  1  0  0  0  0
 11 24  1  0  0  0  0
M  END
>  <pdb_header>
CRYST1   99.158   99.160   99.154  90.00  90.00  90.00 P 1           1 


$$$$
