top5_centroid
  PyMOL2.3          3D                             0

 18 18  0  0  0  0  0  0  0  0999 V2000
  -18.8463   13.0805   25.5795 N   0  0  0  0  0  0  0  0  0  0  0  0
  -16.0305   11.9186   23.5677 C   0  0  0  0  0  0  0  0  0  0  0  0
  -15.8999   10.8662   23.0093 O   0  0  0  0  0  0  0  0  0  0  0  0
  -14.0145   12.9476   22.6657 C   0  0  0  0  0  0  0  0  0  0  0  0
  -19.3977   11.9978   24.9435 N   0  0  0  0  0  0  0  0  0  0  0  0
  -15.1563   12.9527   23.5211 O   0  0  0  0  0  0  0  0  0  0  0  0
  -13.1079   14.0914   23.1847 C   0  0  0  0  0  0  0  0  0  0  0  0
  -17.2564   12.1459   24.4267 C   0  0  0  0  0  0  0  0  0  0  0  0
  -17.5795   13.2945   25.1172 C   0  0  0  0  0  0  0  0  0  0  0  0
  -18.3875   11.2901   24.3608 C   0  0  0  0  0  0  0  0  0  0  0  0
  -14.2865   13.0751   21.6133 H   0  0  0  0  0  0  0  0  0  0  0  0
  -13.5042   11.9757   22.7015 H   0  0  0  0  0  0  0  0  0  0  0  0
  -13.2344   15.0551   22.6736 H   0  0  0  0  0  0  0  0  0  0  0  0
  -12.1009   13.6480   23.1071 H   0  0  0  0  0  0  0  0  0  0  0  0
  -13.4155   14.1295   24.2342 H   0  0  0  0  0  0  0  0  0  0  0  0
  -17.0107   14.2088   25.2636 H   0  0  0  0  0  0  0  0  0  0  0  0
  -19.3017   13.7185   26.2226 H   0  0  0  0  0  0  0  0  0  0  0  0
  -18.6024   10.3145   23.9335 H   0  0  0  0  0  0  0  0  0  0  0  0
  1  5  1  0  0  0  0
  1 17  1  0  0  0  0
  2  3  2  0  0  0  0
  2  8  1  0  0  0  0
  4  6  1  0  0  0  0
  4 11  1  0  0  0  0
  4 12  1  0  0  0  0
  5 10  1  0  0  0  0
  2  6  1  0  0  0  0
  4  7  1  0  0  0  0
  7 13  1  0  0  0  0
  7 14  1  0  0  0  0
  7 15  1  0  0  0  0
  8  9  1  0  0  0  0
  8 10  1  0  0  0  0
  1  9  1  0  0  0  0
  9 16  1  0  0  0  0
 10 18  1  0  0  0  0
M  END
>  <pdb_header>
CRYST1   99.385   99.386   99.381  90.00  90.00  90.00 P 1           1 


$$$$
