top1_centroid
  PyMOL2.3          3D                             0

 24 24  0  0  0  0  0  0  0  0999 V2000
  -18.9399   16.0075   27.7077 N   0  0  0  0  0  0  0  0  0  0  0  0
  -18.6435   17.3678   27.6778 C   0  0  0  0  0  0  0  0  0  0  0  0
  -17.4997   17.8555   27.8199 O   0  0  0  0  0  0  0  0  0  0  0  0
  -19.5289   19.5849   26.9976 C   0  0  0  0  0  0  0  0  0  0  0  0
  -19.7427   18.1134   27.3681 O   0  0  0  0  0  0  0  0  0  0  0  0
  -20.9335   20.0641   26.6594 C   0  0  0  0  0  0  0  0  0  0  0  0
  -19.4504   13.4274   27.2739 O   0  0  0  0  0  0  0  0  0  0  0  0
  -17.8851   15.0373   27.3735 C   0  0  0  0  0  0  0  0  0  0  0  0
  -18.1803   13.5823   27.8655 C   0  0  0  0  0  0  0  0  0  0  0  0
  -20.5801   14.0401   27.8598 C   0  0  0  0  0  0  0  0  0  0  0  0
  -20.3386   15.5149   27.6628 C   0  0  0  0  0  0  0  0  0  0  0  0
  -19.1464   20.0932   27.8977 H   0  0  0  0  0  0  0  0  0  0  0  0
  -18.8697   19.6075   26.1247 H   0  0  0  0  0  0  0  0  0  0  0  0
  -21.5363   20.1650   27.5683 H   0  0  0  0  0  0  0  0  0  0  0  0
  -21.4247   19.4351   25.8993 H   0  0  0  0  0  0  0  0  0  0  0  0
  -20.9923   21.0555   26.1909 H   0  0  0  0  0  0  0  0  0  0  0  0
  -17.7964   15.1056   26.2839 H   0  0  0  0  0  0  0  0  0  0  0  0
  -16.8875   15.2800   27.7350 H   0  0  0  0  0  0  0  0  0  0  0  0
  -18.2276   13.4494   28.9588 H   0  0  0  0  0  0  0  0  0  0  0  0
  -17.5181   12.8930   27.3369 H   0  0  0  0  0  0  0  0  0  0  0  0
  -21.4767   13.5812   27.4222 H   0  0  0  0  0  0  0  0  0  0  0  0
  -20.7780   13.9071   28.9294 H   0  0  0  0  0  0  0  0  0  0  0  0
  -20.8959   16.0920   28.4075 H   0  0  0  0  0  0  0  0  0  0  0  0
  -20.7767   15.9222   26.7444 H   0  0  0  0  0  0  0  0  0  0  0  0
  1  8  1  0  0  0  0
  1 11  1  0  0  0  0
  1  2  1  0  0  0  0
  2  3  2  0  0  0  0
  4  5  1  0  0  0  0
  4 12  1  0  0  0  0
  4 13  1  0  0  0  0
  2  5  1  0  0  0  0
  4  6  1  0  0  0  0
  6 14  1  0  0  0  0
  6 15  1  0  0  0  0
  6 16  1  0  0  0  0
  7 10  1  0  0  0  0
  8  9  1  0  0  0  0
  8 17  1  0  0  0  0
  8 18  1  0  0  0  0
  7  9  1  0  0  0  0
  9 19  1  0  0  0  0
  9 20  1  0  0  0  0
 10 11  1  0  0  0  0
 10 21  1  0  0  0  0
 10 22  1  0  0  0  0
 11 23  1  0  0  0  0
 11 24  1  0  0  0  0
M  END
>  <pdb_header>
CRYST1   99.399   99.401   99.395  90.00  90.00  90.00 P 1           1 


$$$$
