top4_centroid
  PyMOL2.3          3D                             0

 27 27  0  0  0  0  0  0  0  0999 V2000
  -13.3417   18.7688   28.4954 N   0  0  0  0  0  0  0  0  0  0  0  0
  -15.8293   18.6237   27.6336 C   0  0  0  0  0  0  0  0  0  0  0  0
  -13.6884   19.3021   26.2067 O   0  0  0  0  0  0  0  0  0  0  0  0
  -16.2149   17.6681   26.6467 C   0  0  0  0  0  0  0  0  0  0  0  0
  -19.5641   15.2280   28.5485 N   0  0  0  0  0  0  0  0  0  0  0  0
  -14.1182   20.9102   28.1983 O   0  0  0  0  0  0  0  0  0  0  0  0
  -17.3562   16.8787   26.7791 C   0  0  0  0  0  0  0  0  0  0  0  0
  -19.3600   14.0442   26.6367 O   0  0  0  0  0  0  0  0  0  0  0  0
  -18.2718   17.1873   27.7993 C   0  0  0  0  0  0  0  0  0  0  0  0
  -19.5868   16.5084   27.8891 C   0  0  0  0  0  0  0  0  0  0  0  0
  -19.4231   14.1066   27.8172 C   0  0  0  0  0  0  0  0  0  0  0  0
  -19.5456   12.8405   28.6611 C   0  0  0  0  0  0  0  0  0  0  0  0
  -17.7863   18.0832   28.8160 C   0  0  0  0  0  0  0  0  0  0  0  0
  -16.5471   18.7332   28.7825 C   0  0  0  0  0  0  0  0  0  0  0  0
  -14.2719   19.5945   27.4784 S   0  0  0  0  0  0  0  0  0  0  0  0
  -12.7405   19.5751   28.6867 H   0  0  0  0  0  0  0  0  0  0  0  0
  -12.8129   18.2255   27.8237 H   0  0  0  0  0  0  0  0  0  0  0  0
  -15.6227   17.5197   25.7388 H   0  0  0  0  0  0  0  0  0  0  0  0
  -17.5824   16.1110   26.0521 H   0  0  0  0  0  0  0  0  0  0  0  0
  -19.8999   16.3519   26.8467 H   0  0  0  0  0  0  0  0  0  0  0  0
  -20.3581   17.0559   28.4457 H   0  0  0  0  0  0  0  0  0  0  0  0
  -19.5236   15.1381   29.5637 H   0  0  0  0  0  0  0  0  0  0  0  0
  -19.0055   12.8540   29.6129 H   0  0  0  0  0  0  0  0  0  0  0  0
  -20.5970   12.8167   28.9847 H   0  0  0  0  0  0  0  0  0  0  0  0
  -19.2055   11.9576   28.1015 H   0  0  0  0  0  0  0  0  0  0  0  0
  -18.3973   18.2929   29.6795 H   0  0  0  0  0  0  0  0  0  0  0  0
  -16.2778   19.4148   29.5817 H   0  0  0  0  0  0  0  0  0  0  0  0
  1 16  1  0  0  0  0
  1 17  1  0  0  0  0
  2  4  1  0  0  0  0
  2 14  1  0  0  0  0
  3 15  1  0  0  0  0
  4  7  1  0  0  0  0
  4 18  1  0  0  0  0
  5 11  1  0  0  0  0
  5 22  1  0  0  0  0
  7  9  1  0  0  0  0
  7 19  1  0  0  0  0
  9 10  1  0  0  0  0
  5 10  1  0  0  0  0
 10 20  1  0  0  0  0
 10 21  1  0  0  0  0
  8 11  1  0  0  0  0
 11 12  1  0  0  0  0
 12 23  1  0  0  0  0
 12 24  1  0  0  0  0
 12 25  1  0  0  0  0
  9 13  1  0  0  0  0
 13 26  1  0  0  0  0
 13 14  1  0  0  0  0
 14 27  1  0  0  0  0
  1 15  1  0  0  0  0
  2 15  1  0  0  0  0
  6 15  1  0  0  0  0
M  END
>  <pdb_header>
CRYST1   99.199   99.201   99.195  90.00  90.00  90.00 P 1           1 


$$$$
