top2_centroid
  PyMOL2.3          3D                             0

 30 31  0  0  0  0  0  0  0  0999 V2000
  -20.0165   14.1685   26.5545 N   0  0  0  0  0  0  0  0  0  0  0  0
  -18.7299   14.2116   25.7473 C   0  0  0  0  0  0  0  0  0  0  0  0
  -18.8216   15.1808   24.6355 C   0  0  0  0  0  0  0  0  0  0  0  0
  -22.4740   14.3182   26.5230 N   0  0  0  0  0  0  0  0  0  0  0  0
  -19.8031   14.2052   28.0044 C   0  0  0  0  0  0  0  0  0  0  0  0
  -22.6083   15.3947   27.3662 N   0  0  0  0  0  0  0  0  0  0  0  0
  -19.2789   12.9091   28.6397 C   0  0  0  0  0  0  0  0  0  0  0  0
  -24.6521   14.4231   26.7726 N   0  0  0  0  0  0  0  0  0  0  0  0
  -21.2442   13.8750   26.0151 C   0  0  0  0  0  0  0  0  0  0  0  0
  -23.9158   12.9967   25.0860 N   0  0  0  0  0  0  0  0  0  0  0  0
  -23.9577   15.3349   27.5374 C   0  0  0  0  0  0  0  0  0  0  0  0
  -23.6827   13.9179   26.0786 C   0  0  0  0  0  0  0  0  0  0  0  0
  -22.7492   12.6130   24.5318 C   0  0  0  0  0  0  0  0  0  0  0  0
  -22.7865   11.5803   23.4827 C   0  0  0  0  0  0  0  0  0  0  0  0
  -21.4418   12.9909   24.9885 C   0  0  0  0  0  0  0  0  0  0  0  0
  -17.9022   14.6139   26.3468 H   0  0  0  0  0  0  0  0  0  0  0  0
  -18.5272   13.1910   25.3920 H   0  0  0  0  0  0  0  0  0  0  0  0
  -19.7585   14.9211   24.1250 H   0  0  0  0  0  0  0  0  0  0  0  0
  -17.9979   15.1673   23.9188 H   0  0  0  0  0  0  0  0  0  0  0  0
  -18.8546   16.2148   25.0170 H   0  0  0  0  0  0  0  0  0  0  0  0
  -19.0656   14.9677   28.2893 H   0  0  0  0  0  0  0  0  0  0  0  0
  -20.6623   14.5599   28.5896 H   0  0  0  0  0  0  0  0  0  0  0  0
  -20.1378   12.2191   28.5505 H   0  0  0  0  0  0  0  0  0  0  0  0
  -18.9041   13.1099   29.6430 H   0  0  0  0  0  0  0  0  0  0  0  0
  -18.4907   12.4607   28.0251 H   0  0  0  0  0  0  0  0  0  0  0  0
  -24.4229   15.9776   28.2831 H   0  0  0  0  0  0  0  0  0  0  0  0
  -22.2035   10.6811   23.7222 H   0  0  0  0  0  0  0  0  0  0  0  0
  -22.4796   11.9786   22.5069 H   0  0  0  0  0  0  0  0  0  0  0  0
  -23.8132   11.2208   23.3294 H   0  0  0  0  0  0  0  0  0  0  0  0
  -20.5839   12.5683   24.4754 H   0  0  0  0  0  0  0  0  0  0  0  0
  1  5  1  0  0  0  0
  1  9  1  0  0  0  0
  1  2  1  0  0  0  0
  2 16  1  0  0  0  0
  2 17  1  0  0  0  0
  2  3  1  0  0  0  0
  3 18  1  0  0  0  0
  3 19  1  0  0  0  0
  3 20  1  0  0  0  0
  4  6  1  0  0  0  0
  4 12  1  0  0  0  0
  5  7  1  0  0  0  0
  5 21  1  0  0  0  0
  5 22  1  0  0  0  0
  6 11  1  0  0  0  0
  7 23  1  0  0  0  0
  7 24  1  0  0  0  0
  7 25  1  0  0  0  0
  8 12  1  0  0  0  0
  4  9  1  0  0  0  0
  9 15  1  0  0  0  0
 10 13  1  0  0  0  0
  8 11  1  0  0  0  0
 11 26  1  0  0  0  0
 10 12  1  0  0  0  0
 13 14  1  0  0  0  0
 14 27  1  0  0  0  0
 14 28  1  0  0  0  0
 14 29  1  0  0  0  0
 13 15  1  0  0  0  0
 15 30  1  0  0  0  0
M  END
>  <pdb_header>
CRYST1   99.180   99.182   99.176  90.00  90.00  90.00 P 1           1 


$$$$
