top1_centroid
  PyMOL2.3          3D                             0

 32 33  0  0  0  0  0  0  0  0999 V2000
  -19.5407   19.1562   26.9402 N   0  0  0  0  0  0  0  0  0  0  0  0
  -20.8531   19.3451   27.1971 C   0  0  0  0  0  0  0  0  0  0  0  0
  -21.4945   18.5624   27.9440 O   0  0  0  0  0  0  0  0  0  0  0  0
  -18.8542   17.9306   26.9238 C   0  0  0  0  0  0  0  0  0  0  0  0
  -18.1446   15.8733   27.1412 N   0  0  0  0  0  0  0  0  0  0  0  0
  -19.2619   16.6623   27.3373 C   0  0  0  0  0  0  0  0  0  0  0  0
  -17.0527   16.5962   26.8976 N   0  0  0  0  0  0  0  0  0  0  0  0
  -17.9638   14.5100   27.6504 C   0  0  0  0  0  0  0  0  0  0  0  0
  -18.8782   13.4384   27.0215 C   0  0  0  0  0  0  0  0  0  0  0  0
  -17.4620   17.7921   26.6961 C   0  0  0  0  0  0  0  0  0  0  0  0
  -21.4274   20.6575   26.5838 C   0  0  0  0  0  0  0  0  0  0  0  0
  -22.3367   20.3761   25.3001 C   0  0  0  0  0  0  0  0  0  0  0  0
  -23.6191   21.2740   25.4853 C   0  0  0  0  0  0  0  0  0  0  0  0
  -23.2658   22.1600   26.7424 C   0  0  0  0  0  0  0  0  0  0  0  0
  -22.2590   21.4671   27.5835 C   0  0  0  0  0  0  0  0  0  0  0  0
  -19.0554   19.8949   26.4562 H   0  0  0  0  0  0  0  0  0  0  0  0
  -20.1342   16.3345   27.8789 H   0  0  0  0  0  0  0  0  0  0  0  0
  -16.9051   14.2426   27.5328 H   0  0  0  0  0  0  0  0  0  0  0  0
  -18.1704   14.6011   28.7257 H   0  0  0  0  0  0  0  0  0  0  0  0
  -18.6298   13.0463   26.0332 H   0  0  0  0  0  0  0  0  0  0  0  0
  -19.9188   13.8062   26.9638 H   0  0  0  0  0  0  0  0  0  0  0  0
  -18.7105   12.5180   27.6028 H   0  0  0  0  0  0  0  0  0  0  0  0
  -16.7225   18.5462   26.4527 H   0  0  0  0  0  0  0  0  0  0  0  0
  -20.6290   21.3331   26.2419 H   0  0  0  0  0  0  0  0  0  0  0  0
  -21.9089   20.7114   24.3528 H   0  0  0  0  0  0  0  0  0  0  0  0
  -22.5559   19.3106   25.1763 H   0  0  0  0  0  0  0  0  0  0  0  0
  -23.7055   21.8980   24.5967 H   0  0  0  0  0  0  0  0  0  0  0  0
  -24.5294   20.6514   25.5385 H   0  0  0  0  0  0  0  0  0  0  0  0
  -24.1715   22.2621   27.3505 H   0  0  0  0  0  0  0  0  0  0  0  0
  -22.8198   23.1111   26.4424 H   0  0  0  0  0  0  0  0  0  0  0  0
  -22.9151   20.8598   28.2080 H   0  0  0  0  0  0  0  0  0  0  0  0
  -21.6297   22.1751   28.1453 H   0  0  0  0  0  0  0  0  0  0  0  0
  1  2  1  0  0  0  0
  1 16  1  0  0  0  0
  2  3  2  0  0  0  0
  2 11  1  0  0  0  0
  1  4  1  0  0  0  0
  5  6  1  0  0  0  0
  5  7  1  0  0  0  0
  4  6  1  0  0  0  0
  6 17  1  0  0  0  0
  7 10  1  0  0  0  0
  5  8  1  0  0  0  0
  8 18  1  0  0  0  0
  8 19  1  0  0  0  0
  8  9  1  0  0  0  0
  9 20  1  0  0  0  0
  9 21  1  0  0  0  0
  9 22  1  0  0  0  0
  4 10  1  0  0  0  0
 10 23  1  0  0  0  0
 11 12  1  0  0  0  0
 11 15  1  0  0  0  0
 11 24  1  0  0  0  0
 12 13  1  0  0  0  0
 12 25  1  0  0  0  0
 12 26  1  0  0  0  0
 13 14  1  0  0  0  0
 13 27  1  0  0  0  0
 13 28  1  0  0  0  0
 14 15  1  0  0  0  0
 14 29  1  0  0  0  0
 14 30  1  0  0  0  0
 15 31  1  0  0  0  0
 15 32  1  0  0  0  0
M  END
>  <pdb_header>
CRYST1   99.108   99.110   99.104  90.00  90.00  90.00 P 1           1 


$$$$
