top5_centroid
  PyMOL2.3          3D                             0

 22 22  0  0  0  0  0  0  0  0999 V2000
  -17.4077   20.5071   28.1010 N   0  0  0  0  0  0  0  0  0  0  0  0
  -18.4042   16.3448   27.0833 C   0  0  0  0  0  0  0  0  0  0  0  0
  -17.8012   16.0844   28.3103 O   0  0  0  0  0  0  0  0  0  0  0  0
  -19.3034   17.5920   27.1472 C   0  0  0  0  0  0  0  0  0  0  0  0
  -17.8995   20.1853   29.3247 N   0  0  0  0  0  0  0  0  0  0  0  0
  -18.7068   18.8343   27.7717 C   0  0  0  0  0  0  0  0  0  0  0  0
  -17.8253   19.6755   27.0859 C   0  0  0  0  0  0  0  0  0  0  0  0
  -16.6408   21.7885   28.0592 C   0  0  0  0  0  0  0  0  0  0  0  0
  -16.8733   22.4914   26.7447 C   0  0  0  0  0  0  0  0  0  0  0  0
  -18.7307   19.1740   29.1355 C   0  0  0  0  0  0  0  0  0  0  0  0
  -17.0254   16.6514   28.4366 H   0  0  0  0  0  0  0  0  0  0  0  0
  -17.5389   16.5003   26.4311 H   0  0  0  0  0  0  0  0  0  0  0  0
  -18.9222   15.4674   26.6780 H   0  0  0  0  0  0  0  0  0  0  0  0
  -19.5178   17.7579   26.0795 H   0  0  0  0  0  0  0  0  0  0  0  0
  -20.2301   17.3242   27.6619 H   0  0  0  0  0  0  0  0  0  0  0  0
  -17.6616   19.7324   26.0198 H   0  0  0  0  0  0  0  0  0  0  0  0
  -16.8046   22.2621   29.0406 H   0  0  0  0  0  0  0  0  0  0  0  0
  -15.5944   21.4894   28.1389 H   0  0  0  0  0  0  0  0  0  0  0  0
  -17.9470   22.5536   26.5466 H   0  0  0  0  0  0  0  0  0  0  0  0
  -16.4788   21.9898   25.8513 H   0  0  0  0  0  0  0  0  0  0  0  0
  -16.3422   23.4383   26.9028 H   0  0  0  0  0  0  0  0  0  0  0  0
  -19.2272   18.7839   30.0032 H   0  0  0  0  0  0  0  0  0  0  0  0
  1  8  1  0  0  0  0
  2  4  1  0  0  0  0
  2 12  1  0  0  0  0
  2 13  1  0  0  0  0
  2  3  2  0  0  0  0
  3 11  1  0  0  0  0
  4  6  1  0  0  0  0
  4 14  1  0  0  0  0
  4 15  1  0  0  0  0
  1  5  1  0  0  0  0
  6  7  1  0  0  0  0
  6 10  1  0  0  0  0
  1  7  1  0  0  0  0
  7 16  1  0  0  0  0
  8  9  1  0  0  0  0
  8 17  1  0  0  0  0
  8 18  1  0  0  0  0
  9 19  1  0  0  0  0
  9 20  1  0  0  0  0
  9 21  1  0  0  0  0
  5 10  1  0  0  0  0
 10 22  1  0  0  0  0
M  END
>  <pdb_header>
CRYST1   99.291   99.293   99.288  90.00  90.00  90.00 P 1           1 


$$$$
