top4_centroid
  PyMOL2.3          3D                             0

 23 24  0  0  0  0  0  0  0  0999 V2000
  -21.2174   12.7166   26.6573 N   0  0  0  0  0  0  0  0  0  0  0  0
  -22.4310   12.4463   27.4046 C   0  0  0  0  0  0  0  0  0  0  0  0
  -18.5498   17.7807   28.8726 O   0  0  0  0  0  0  0  0  0  0  0  0
  -19.3438   13.4267   26.0391 C   0  0  0  0  0  0  0  0  0  0  0  0
  -20.7552   11.8518   25.6908 N   0  0  0  0  0  0  0  0  0  0  0  0
  -19.3674   16.4358   30.1137 O   0  0  0  0  0  0  0  0  0  0  0  0
  -20.3267   13.6678   26.9070 C   0  0  0  0  0  0  0  0  0  0  0  0
  -19.6446   12.3077   25.2890 N   0  0  0  0  0  0  0  0  0  0  0  0
  -20.2433   14.6533   28.0193 C   0  0  0  0  0  0  0  0  0  0  0  0
  -19.2725   15.8941   27.7611 C   0  0  0  0  0  0  0  0  0  0  0  0
  -19.0650   16.7088   28.9892 C   0  0  0  0  0  0  0  0  0  0  0  0
  -17.9897   15.2236   27.1063 C   0  0  0  0  0  0  0  0  0  0  0  0
  -18.1254   14.3415   25.8856 C   0  0  0  0  0  0  0  0  0  0  0  0
  -23.0586   13.3329   27.5887 H   0  0  0  0  0  0  0  0  0  0  0  0
  -22.2372   12.2392   28.4604 H   0  0  0  0  0  0  0  0  0  0  0  0
  -23.0666   11.6046   27.1156 H   0  0  0  0  0  0  0  0  0  0  0  0
  -21.2693   15.0130   28.1067 H   0  0  0  0  0  0  0  0  0  0  0  0
  -20.0603   14.0683   28.9346 H   0  0  0  0  0  0  0  0  0  0  0  0
  -17.3024   16.0609   26.9188 H   0  0  0  0  0  0  0  0  0  0  0  0
  -17.5339   14.5801   27.8740 H   0  0  0  0  0  0  0  0  0  0  0  0
  -17.1508   13.8349   25.8333 H   0  0  0  0  0  0  0  0  0  0  0  0
  -18.2923   15.0318   25.0469 H   0  0  0  0  0  0  0  0  0  0  0  0
  -19.6101   16.5047   26.9184 H   0  0  0  0  0  0  0  0  0  0  0  0
  1  2  1  0  0  0  0
  1  5  1  0  0  0  0
  2 14  1  0  0  0  0
  2 15  1  0  0  0  0
  2 16  1  0  0  0  0
  4 13  1  0  0  0  0
  5  8  1  0  0  0  0
  1  7  1  0  0  0  0
  4  7  1  0  0  0  0
  4  8  1  0  0  0  0
  7  9  1  0  0  0  0
  9 10  1  0  0  0  0
  9 17  1  0  0  0  0
  9 18  1  0  0  0  0
 10 11  1  0  0  0  0
 10 23  1  0  0  0  0
  3 11  1  0  0  0  0
  6 11  1  0  0  0  0
 10 12  1  0  0  0  0
 12 19  1  0  0  0  0
 12 20  1  0  0  0  0
 12 13  1  0  0  0  0
 13 21  1  0  0  0  0
 13 22  1  0  0  0  0
M  END
>  <pdb_header>
CRYST1   99.106   99.108   99.102  90.00  90.00  90.00 P 1           1 


$$$$
