top2_centroid
  PyMOL2.3          3D                             0

 23 24  0  0  0  0  0  0  0  0999 V2000
  -17.9609   13.5194   28.1003 N   0  0  0  0  0  0  0  0  0  0  0  0
  -16.8313   13.2739   28.9821 C   0  0  0  0  0  0  0  0  0  0  0  0
  -21.7847   15.1539   32.0683 O   0  0  0  0  0  0  0  0  0  0  0  0
  -19.8518   14.0970   27.3285 C   0  0  0  0  0  0  0  0  0  0  0  0
  -17.9918   13.0409   26.8952 N   0  0  0  0  0  0  0  0  0  0  0  0
  -21.7376   16.9222   30.8479 O   0  0  0  0  0  0  0  0  0  0  0  0
  -19.0914   14.2377   28.4043 C   0  0  0  0  0  0  0  0  0  0  0  0
  -19.1357   13.3773   26.3755 N   0  0  0  0  0  0  0  0  0  0  0  0
  -19.5634   14.8235   29.6900 C   0  0  0  0  0  0  0  0  0  0  0  0
  -21.0659   14.9235   29.8037 C   0  0  0  0  0  0  0  0  0  0  0  0
  -21.4628   15.7512   31.0282 C   0  0  0  0  0  0  0  0  0  0  0  0
  -21.6861   15.4193   28.3610 C   0  0  0  0  0  0  0  0  0  0  0  0
  -21.2865   14.4432   27.3174 C   0  0  0  0  0  0  0  0  0  0  0  0
  -16.8563   13.9061   29.8779 H   0  0  0  0  0  0  0  0  0  0  0  0
  -15.9398   13.5889   28.4086 H   0  0  0  0  0  0  0  0  0  0  0  0
  -16.6830   12.2197   29.2097 H   0  0  0  0  0  0  0  0  0  0  0  0
  -19.1317   14.2970   30.5482 H   0  0  0  0  0  0  0  0  0  0  0  0
  -19.1357   15.8320   29.8250 H   0  0  0  0  0  0  0  0  0  0  0  0
  -22.7767   15.4837   28.5108 H   0  0  0  0  0  0  0  0  0  0  0  0
  -21.2825   16.3969   28.0672 H   0  0  0  0  0  0  0  0  0  0  0  0
  -21.6118   14.7792   26.3258 H   0  0  0  0  0  0  0  0  0  0  0  0
  -21.9039   13.5364   27.3215 H   0  0  0  0  0  0  0  0  0  0  0  0
  -21.3691   13.8999   30.0424 H   0  0  0  0  0  0  0  0  0  0  0  0
  1  2  1  0  0  0  0
  1  5  1  0  0  0  0
  2 14  1  0  0  0  0
  2 15  1  0  0  0  0
  2 16  1  0  0  0  0
  4 13  1  0  0  0  0
  5  8  1  0  0  0  0
  1  7  1  0  0  0  0
  4  7  1  0  0  0  0
  4  8  1  0  0  0  0
  7  9  1  0  0  0  0
  9 10  1  0  0  0  0
  9 17  1  0  0  0  0
  9 18  1  0  0  0  0
 10 11  1  0  0  0  0
 10 23  1  0  0  0  0
  3 11  1  0  0  0  0
  6 11  1  0  0  0  0
 10 12  1  0  0  0  0
 12 19  1  0  0  0  0
 12 20  1  0  0  0  0
 12 13  1  0  0  0  0
 13 21  1  0  0  0  0
 13 22  1  0  0  0  0
M  END
>  <pdb_header>
CRYST1   99.154   99.156   99.150  90.00  90.00  90.00 P 1           1 


$$$$
