
     RDKit          3D

 16 17  0  0  0  0  0  0  0  0999 V2000
  -14.6403   18.1847   25.0859 Br  0  0  0  0  0  0  0  0  0  0  0  0
  -16.4088   18.4074   25.7301 C   0  0  0  0  0  0  0  0  0  0  0  0
  -17.2159   17.3260   26.1778 C   0  0  0  0  0  0  0  0  0  0  0  0
  -18.5211   17.6290   26.6353 C   0  0  0  0  0  0  0  0  0  0  0  0
  -18.9962   18.9076   26.6513 N   0  0  0  0  0  0  0  0  0  0  0  0
  -18.2442   19.8868   26.2379 C   0  0  0  0  0  0  0  0  0  0  0  0
  -18.6411   20.8724   26.2625 H   0  0  0  0  0  0  0  0  0  0  0  0
  -16.9349   19.6744   25.7658 C   0  0  0  0  0  0  0  0  0  0  0  0
  -16.3627   20.5050   25.4403 H   0  0  0  0  0  0  0  0  0  0  0  0
  -19.3654   16.6552   27.0831 N   0  0  0  0  0  0  0  0  0  0  0  0
  -18.9754   15.4110   27.0961 C   0  0  0  0  0  0  0  0  0  0  0  0
  -19.6544   14.6744   27.4499 H   0  0  0  0  0  0  0  0  0  0  0  0
  -17.6911   15.0241   26.6576 C   0  0  0  0  0  0  0  0  0  0  0  0
  -17.4220   13.9996   26.6887 H   0  0  0  0  0  0  0  0  0  0  0  0
  -16.8073   15.9673   26.1988 C   0  0  0  0  0  0  0  0  0  0  0  0
  -15.8427   15.6792   25.8688 H   0  0  0  0  0  0  0  0  0  0  0  0
  1  2  1  0
  2  3  1  0
  2  8  2  0
  3  4  1  0
  3 15  2  0
  4  5  1  0
  4 10  2  0
  5  6  2  0
  6  7  1  0
  6  8  1  0
  8  9  1  0
 10 11  1  0
 11 12  1  0
 11 13  2  0
 13 14  1  0
 13 15  1  0
 15 16  1  0
M  END
$$$$
