top5_centroid
  PyMOL2.3          3D                             0

 19 19  0  0  0  0  0  0  0  0999 V2000
  -20.2431   19.5308   28.2183 N   0  0  0  0  0  0  0  0  0  0  0  0
  -21.5694   19.4931   27.9212 C   0  0  0  0  0  0  0  0  0  0  0  0
  -22.0188   19.2897   26.7773 O   0  0  0  0  0  0  0  0  0  0  0  0
  -19.3133   19.7088   27.2114 C   0  0  0  0  0  0  0  0  0  0  0  0
  -15.9197   19.3312   28.4449 N   0  0  0  0  0  0  0  0  0  0  0  0
  -17.8701   19.3245   27.6628 C   0  0  0  0  0  0  0  0  0  0  0  0
  -16.1797   17.9976   28.2222 N   0  0  0  0  0  0  0  0  0  0  0  0
  -16.8689   20.1857   28.0416 C   0  0  0  0  0  0  0  0  0  0  0  0
  -17.4226   18.0075   27.8070 C   0  0  0  0  0  0  0  0  0  0  0  0
  -22.4818   19.6123   29.1385 C   0  0  0  0  0  0  0  0  0  0  0  0
  -20.0322   19.7151   29.1949 H   0  0  0  0  0  0  0  0  0  0  0  0
  -19.5717   18.9655   26.4423 H   0  0  0  0  0  0  0  0  0  0  0  0
  -19.3489   20.7305   26.8141 H   0  0  0  0  0  0  0  0  0  0  0  0
  -16.7896   21.2526   28.1792 H   0  0  0  0  0  0  0  0  0  0  0  0
  -15.0031   19.6583   28.7271 H   0  0  0  0  0  0  0  0  0  0  0  0
  -18.0059   17.0939   27.7029 H   0  0  0  0  0  0  0  0  0  0  0  0
  -22.0816   18.9461   29.9175 H   0  0  0  0  0  0  0  0  0  0  0  0
  -23.4646   19.3671   28.7446 H   0  0  0  0  0  0  0  0  0  0  0  0
  -22.4814   20.6700   29.4457 H   0  0  0  0  0  0  0  0  0  0  0  0
  1  4  1  0  0  0  0
  1 11  1  0  0  0  0
  1  2  1  0  0  0  0
  2 10  1  0  0  0  0
  2  3  2  0  0  0  0
  4  6  1  0  0  0  0
  4 12  1  0  0  0  0
  4 13  1  0  0  0  0
  5  7  1  0  0  0  0
  5 15  1  0  0  0  0
  6  8  1  0  0  0  0
  6  9  1  0  0  0  0
  7  9  1  0  0  0  0
  5  8  1  0  0  0  0
  8 14  1  0  0  0  0
  9 16  1  0  0  0  0
 10 17  1  0  0  0  0
 10 18  1  0  0  0  0
 10 19  1  0  0  0  0
M  END
>  <pdb_header>
CRYST1   99.333   99.335   99.329  90.00  90.00  90.00 P 1           1 


$$$$
