top2_centroid
  PyMOL2.3          3D                             0

 28 29  0  0  0  0  0  0  0  0999 V2000
  -24.2069   14.0085   30.0550 N   0  0  0  0  0  0  0  0  0  0  0  0
  -23.6668   14.2792   28.8698 C   0  0  0  0  0  0  0  0  0  0  0  0
  -24.2397   13.8327   27.8777 O   0  0  0  0  0  0  0  0  0  0  0  0
  -22.4822   15.3233   28.8419 C   0  0  0  0  0  0  0  0  0  0  0  0
  -20.5414   16.1499   27.4227 N   0  0  0  0  0  0  0  0  0  0  0  0
  -21.6622   15.2248   27.5199 C   0  0  0  0  0  0  0  0  0  0  0  0
  -18.4151   17.0100   27.4060 N   0  0  0  0  0  0  0  0  0  0  0  0
  -19.1939   15.8372   27.5736 C   0  0  0  0  0  0  0  0  0  0  0  0
  -18.6564   14.4383   27.8401 C   0  0  0  0  0  0  0  0  0  0  0  0
  -19.3514   17.9588   27.2418 C   0  0  0  0  0  0  0  0  0  0  0  0
  -20.6291   17.4820   27.2797 C   0  0  0  0  0  0  0  0  0  0  0  0
  -21.7440   18.2959   26.9676 C   0  0  0  0  0  0  0  0  0  0  0  0
  -21.5314   19.6582   26.6826 C   0  0  0  0  0  0  0  0  0  0  0  0
  -20.1989   20.1561   26.6305 C   0  0  0  0  0  0  0  0  0  0  0  0
  -19.1191   19.3476   26.9391 C   0  0  0  0  0  0  0  0  0  0  0  0
  -25.0543   13.4589   30.1031 H   0  0  0  0  0  0  0  0  0  0  0  0
  -23.8775   14.4779   30.8901 H   0  0  0  0  0  0  0  0  0  0  0  0
  -22.9509   16.3090   28.9728 H   0  0  0  0  0  0  0  0  0  0  0  0
  -21.8901   15.1454   29.7428 H   0  0  0  0  0  0  0  0  0  0  0  0
  -22.1948   15.3081   26.5703 H   0  0  0  0  0  0  0  0  0  0  0  0
  -21.3421   14.1804   27.3659 H   0  0  0  0  0  0  0  0  0  0  0  0
  -17.6089   14.5414   28.1368 H   0  0  0  0  0  0  0  0  0  0  0  0
  -18.7307   13.7920   26.9545 H   0  0  0  0  0  0  0  0  0  0  0  0
  -19.3006   13.9441   28.5880 H   0  0  0  0  0  0  0  0  0  0  0  0
  -22.7492   17.9104   26.9954 H   0  0  0  0  0  0  0  0  0  0  0  0
  -22.3587   20.2896   26.3695 H   0  0  0  0  0  0  0  0  0  0  0  0
  -20.0289   21.1867   26.3356 H   0  0  0  0  0  0  0  0  0  0  0  0
  -18.0842   19.6843   27.0116 H   0  0  0  0  0  0  0  0  0  0  0  0
  1 16  1  0  0  0  0
  1 17  1  0  0  0  0
  1  2  1  0  0  0  0
  2  4  1  0  0  0  0
  2  3  2  0  0  0  0
  4  6  1  0  0  0  0
  4 18  1  0  0  0  0
  4 19  1  0  0  0  0
  5  8  1  0  0  0  0
  5 11  1  0  0  0  0
  5  6  1  0  0  0  0
  6 20  1  0  0  0  0
  6 21  1  0  0  0  0
  7 10  1  0  0  0  0
  7  8  1  0  0  0  0
  8  9  1  0  0  0  0
  9 22  1  0  0  0  0
  9 23  1  0  0  0  0
  9 24  1  0  0  0  0
 10 11  1  0  0  0  0
 10 15  1  0  0  0  0
 11 12  1  0  0  0  0
 12 13  1  0  0  0  0
 12 25  1  0  0  0  0
 13 14  1  0  0  0  0
 13 26  1  0  0  0  0
 14 15  1  0  0  0  0
 14 27  1  0  0  0  0
 15 28  1  0  0  0  0
M  END
>  <pdb_header>
CRYST1   99.105   99.107   99.102  90.00  90.00  90.00 P 1           1 


$$$$
