
     RDKit          3D

 16 16  0  0  0  0  0  0  0  0999 V2000
  -20.8661   12.5177   26.1670 O   0  0  0  0  0  0  0  0  0  0  0  0
  -21.7014   12.0150   27.2099 C   0  0  0  0  0  0  0  0  0  0  0  0
  -21.7674   10.9227   27.1340 H   0  0  0  0  0  0  0  0  0  0  0  0
  -21.2814   12.2765   28.1878 H   0  0  0  0  0  0  0  0  0  0  0  0
  -23.0538   12.6177   27.0362 C   0  0  0  0  0  0  0  0  0  0  0  0
  -23.7668   13.5572   28.2785 S   0  0  0  0  0  0  0  0  0  0  0  0
  -25.1050   13.7242   27.2419 C   0  0  0  0  0  0  0  0  0  0  0  0
  -26.1761   14.4383   27.6272 N   0  0  0  0  0  0  0  0  0  0  0  0
  -26.2249   14.8962   28.5287 H   0  0  0  0  0  0  0  0  0  0  0  0
  -26.9730   14.5370   27.0098 H   0  0  0  0  0  0  0  0  0  0  0  0
  -25.0111   13.1256   26.0959 N   0  0  0  0  0  0  0  0  0  0  0  0
  -23.7997   12.4758   25.9821 N   0  0  0  0  0  0  0  0  0  0  0  0
  -19.5596   11.9636   26.2303 C   0  0  0  0  0  0  0  0  0  0  0  0
  -18.9676   12.3830   25.4120 H   0  0  0  0  0  0  0  0  0  0  0  0
  -19.5980   10.8766   26.1118 H   0  0  0  0  0  0  0  0  0  0  0  0
  -19.0786   12.2237   27.1781 H   0  0  0  0  0  0  0  0  0  0  0  0
  1  2  1  0
  1 13  1  0
  2  3  1  0
  2  4  1  0
  2  5  1  0
  5  6  1  0
  5 12  2  0
  6  7  1  0
  7  8  1  0
  7 11  2  0
  8  9  1  0
  8 10  1  0
 11 12  1  0
 13 14  1  0
 13 15  1  0
 13 16  1  0
M  END
$$$$
