top1_centroid
  PyMOL2.3          3D                             0

 29 30  0  0  0  0  0  0  0  0999 V2000
  -17.6302   18.2266   26.3359 N   0  0  0  0  0  0  0  0  0  0  0  0
  -21.5962   20.1463   25.2438 C   0  0  0  0  0  0  0  0  0  0  0  0
  -21.3501   20.2534   27.6183 O   0  0  0  0  0  0  0  0  0  0  0  0
  -20.6297   20.2467   26.3983 C   0  0  0  0  0  0  0  0  0  0  0  0
  -18.5448   17.3030   26.7520 N   0  0  0  0  0  0  0  0  0  0  0  0
  -19.6347   19.1459   26.4388 C   0  0  0  0  0  0  0  0  0  0  0  0
  -18.2702   19.3072   26.1851 C   0  0  0  0  0  0  0  0  0  0  0  0
  -18.2138   15.8978   27.0607 C   0  0  0  0  0  0  0  0  0  0  0  0
  -18.5274   15.3465   28.4809 C   0  0  0  0  0  0  0  0  0  0  0  0
  -18.9297   13.9117   28.2246 C   0  0  0  0  0  0  0  0  0  0  0  0
  -18.8342   13.6864   26.6871 C   0  0  0  0  0  0  0  0  0  0  0  0
  -18.8407   14.9871   26.0815 C   0  0  0  0  0  0  0  0  0  0  0  0
  -19.8171   17.8768   26.8734 C   0  0  0  0  0  0  0  0  0  0  0  0
  -21.2447   20.3430   24.2201 H   0  0  0  0  0  0  0  0  0  0  0  0
  -22.4314   20.8153   25.5007 H   0  0  0  0  0  0  0  0  0  0  0  0
  -22.0309   19.1433   25.1249 H   0  0  0  0  0  0  0  0  0  0  0  0
  -22.3076   20.2603   27.4338 H   0  0  0  0  0  0  0  0  0  0  0  0
  -17.7373   20.2140   25.9037 H   0  0  0  0  0  0  0  0  0  0  0  0
  -17.1184   15.8185   27.0708 H   0  0  0  0  0  0  0  0  0  0  0  0
  -17.6405   15.3055   29.1201 H   0  0  0  0  0  0  0  0  0  0  0  0
  -19.2911   15.9020   29.0209 H   0  0  0  0  0  0  0  0  0  0  0  0
  -18.3060   13.2485   28.8272 H   0  0  0  0  0  0  0  0  0  0  0  0
  -19.9381   13.6403   28.5715 H   0  0  0  0  0  0  0  0  0  0  0  0
  -19.5273   13.0238   26.1600 H   0  0  0  0  0  0  0  0  0  0  0  0
  -17.8351   13.2992   26.4453 H   0  0  0  0  0  0  0  0  0  0  0  0
  -19.8514   15.2903   25.7620 H   0  0  0  0  0  0  0  0  0  0  0  0
  -18.2019   15.0593   25.1898 H   0  0  0  0  0  0  0  0  0  0  0  0
  -20.7282   17.4019   27.2102 H   0  0  0  0  0  0  0  0  0  0  0  0
  -20.0871   21.1995   26.2921 H   0  0  0  0  0  0  0  0  0  0  0  0
  1  5  1  0  0  0  0
  2  4  1  0  0  0  0
  2 14  1  0  0  0  0
  2 15  1  0  0  0  0
  2 16  1  0  0  0  0
  3 17  1  0  0  0  0
  3  4  1  0  0  0  0
  4  6  1  0  0  0  0
  4 29  1  0  0  0  0
  5  8  1  0  0  0  0
  6  7  1  0  0  0  0
  6 13  1  0  0  0  0
  1  7  1  0  0  0  0
  7 18  1  0  0  0  0
  8  9  1  0  0  0  0
  8 12  1  0  0  0  0
  8 19  1  0  0  0  0
  9 10  1  0  0  0  0
  9 20  1  0  0  0  0
  9 21  1  0  0  0  0
 10 11  1  0  0  0  0
 10 22  1  0  0  0  0
 10 23  1  0  0  0  0
 11 12  1  0  0  0  0
 11 24  1  0  0  0  0
 11 25  1  0  0  0  0
 12 26  1  0  0  0  0
 12 27  1  0  0  0  0
  5 13  1  0  0  0  0
 13 28  1  0  0  0  0
M  END
>  <pdb_header>
CRYST1   99.151   99.152   99.147  90.00  90.00  90.00 P 1           1 


$$$$
