top2_centroid
  PyMOL2.3          3D                             0

 19 19  0  0  0  0  0  0  0  0999 V2000
  -17.5441   14.8507   27.4564 N   0  0  0  0  0  0  0  0  0  0  0  0
  -18.6850   14.1716   27.8656 C   0  0  0  0  0  0  0  0  0  0  0  0
  -19.8010   14.7183   27.8854 O   0  0  0  0  0  0  0  0  0  0  0  0
  -17.6576   16.1081   26.7603 C   0  0  0  0  0  0  0  0  0  0  0  0
  -14.6213   17.9323   26.9287 N   0  0  0  0  0  0  0  0  0  0  0  0
  -16.4406   16.8811   27.1032 C   0  0  0  0  0  0  0  0  0  0  0  0
  -14.9117   18.0764   28.2410 N   0  0  0  0  0  0  0  0  0  0  0  0
  -15.5293   17.3385   26.1397 C   0  0  0  0  0  0  0  0  0  0  0  0
  -16.0254   17.4168   28.4065 C   0  0  0  0  0  0  0  0  0  0  0  0
  -18.5356   12.8384   28.3429 C   0  0  0  0  0  0  0  0  0  0  0  0
  -16.6147   14.4399   27.5239 H   0  0  0  0  0  0  0  0  0  0  0  0
  -17.6806   15.9580   25.6671 H   0  0  0  0  0  0  0  0  0  0  0  0
  -18.5287   16.6729   27.1017 H   0  0  0  0  0  0  0  0  0  0  0  0
  -15.5277   17.2033   25.0567 H   0  0  0  0  0  0  0  0  0  0  0  0
  -13.9623   18.5856   26.5290 H   0  0  0  0  0  0  0  0  0  0  0  0
  -16.5461   17.4404   29.3552 H   0  0  0  0  0  0  0  0  0  0  0  0
  -17.5908   12.7385   28.8951 H   0  0  0  0  0  0  0  0  0  0  0  0
  -18.4838   12.1295   27.5019 H   0  0  0  0  0  0  0  0  0  0  0  0
  -19.3346   12.5092   29.0157 H   0  0  0  0  0  0  0  0  0  0  0  0
  1  4  1  0  0  0  0
  1 11  1  0  0  0  0
  1  2  1  0  0  0  0
  2 10  1  0  0  0  0
  2  3  2  0  0  0  0
  4  6  1  0  0  0  0
  4 12  1  0  0  0  0
  4 13  1  0  0  0  0
  5  7  1  0  0  0  0
  5 15  1  0  0  0  0
  6  8  1  0  0  0  0
  6  9  1  0  0  0  0
  7  9  1  0  0  0  0
  5  8  1  0  0  0  0
  8 14  1  0  0  0  0
  9 16  1  0  0  0  0
 10 17  1  0  0  0  0
 10 18  1  0  0  0  0
 10 19  1  0  0  0  0
M  END
>  <pdb_header>
CRYST1   99.333   99.335   99.329  90.00  90.00  90.00 P 1           1 


$$$$
