top5_centroid
  PyMOL2.3          3D                             0

 29 31  0  0  0  0  0  0  0  0999 V2000
  -19.0686   16.7490   27.6843 N   0  0  0  0  0  0  0  0  0  0  0  0
  -18.0998   15.9339   27.2138 C   0  0  0  0  0  0  0  0  0  0  0  0
  -16.8987   16.1993   27.0771 O   0  0  0  0  0  0  0  0  0  0  0  0
  -19.0980   18.1543   27.7899 C   0  0  0  0  0  0  0  0  0  0  0  0
  -18.6478   20.2610   27.4492 N   0  0  0  0  0  0  0  0  0  0  0  0
  -18.1964   19.0257   27.2374 C   0  0  0  0  0  0  0  0  0  0  0  0
  -19.8404   20.2677   28.0862 N   0  0  0  0  0  0  0  0  0  0  0  0
  -18.0978   21.5639   27.1566 C   0  0  0  0  0  0  0  0  0  0  0  0
  -16.5866   21.7936   27.4013 C   0  0  0  0  0  0  0  0  0  0  0  0
  -20.1476   19.0023   28.2124 C   0  0  0  0  0  0  0  0  0  0  0  0
  -19.0698   14.7700   26.8569 C   0  0  0  0  0  0  0  0  0  0  0  0
  -18.1887   14.0330   25.7913 C   0  0  0  0  0  0  0  0  0  0  0  0
  -18.6316   12.8203   26.6759 C   0  0  0  0  0  0  0  0  0  0  0  0
  -18.4555   13.7474   27.8875 C   0  0  0  0  0  0  0  0  0  0  0  0
  -19.9146   16.2537   27.9341 H   0  0  0  0  0  0  0  0  0  0  0  0
  -17.2627   18.8153   26.7389 H   0  0  0  0  0  0  0  0  0  0  0  0
  -18.3278   21.9174   26.1426 H   0  0  0  0  0  0  0  0  0  0  0  0
  -18.6520   22.3160   27.7338 H   0  0  0  0  0  0  0  0  0  0  0  0
  -16.3428   21.8552   28.4631 H   0  0  0  0  0  0  0  0  0  0  0  0
  -15.9166   21.0196   26.9986 H   0  0  0  0  0  0  0  0  0  0  0  0
  -16.4196   22.8060   27.0049 H   0  0  0  0  0  0  0  0  0  0  0  0
  -21.0610   18.7678   28.7584 H   0  0  0  0  0  0  0  0  0  0  0  0
  -20.1341   14.9032   26.6521 H   0  0  0  0  0  0  0  0  0  0  0  0
  -17.1096   14.1772   25.7154 H   0  0  0  0  0  0  0  0  0  0  0  0
  -18.7387   14.0671   24.8444 H   0  0  0  0  0  0  0  0  0  0  0  0
  -17.8919   12.0101   26.6121 H   0  0  0  0  0  0  0  0  0  0  0  0
  -19.6614   12.4514   26.6286 H   0  0  0  0  0  0  0  0  0  0  0  0
  -17.3899   13.9172   28.0945 H   0  0  0  0  0  0  0  0  0  0  0  0
  -18.8496   13.3294   28.8212 H   0  0  0  0  0  0  0  0  0  0  0  0
  1  2  1  0  0  0  0
  1 15  1  0  0  0  0
  2  3  2  0  0  0  0
  2 11  1  0  0  0  0
  1  4  1  0  0  0  0
  5  6  1  0  0  0  0
  5  7  1  0  0  0  0
  4  6  1  0  0  0  0
  6 16  1  0  0  0  0
  7 10  1  0  0  0  0
  5  8  1  0  0  0  0
  8 17  1  0  0  0  0
  8 18  1  0  0  0  0
  8  9  1  0  0  0  0
  9 19  1  0  0  0  0
  9 20  1  0  0  0  0
  9 21  1  0  0  0  0
  4 10  1  0  0  0  0
 10 22  1  0  0  0  0
 11 12  1  0  0  0  0
 11 13  1  0  0  0  0
 11 14  1  0  0  0  0
 11 23  1  0  0  0  0
 12 13  1  0  0  0  0
 12 24  1  0  0  0  0
 12 25  1  0  0  0  0
 13 14  1  0  0  0  0
 13 26  1  0  0  0  0
 13 27  1  0  0  0  0
 14 28  1  0  0  0  0
 14 29  1  0  0  0  0
M  END
>  <pdb_header>
CRYST1   99.200   99.202   99.196  90.00  90.00  90.00 P 1           1 


$$$$
