top5_centroid
  PyMOL2.3          3D                             0

 39 40  0  0  0  0  0  0  0  0999 V2000
  -16.5446   21.3248   28.8184 N   0  0  0  0  0  0  0  0  0  0  0  0
  -16.2173   20.3923   27.8400 C   0  0  0  0  0  0  0  0  0  0  0  0
  -15.1102   19.7896   27.9329 O   0  0  0  0  0  0  0  0  0  0  0  0
  -17.0929   20.2444   26.5567 C   0  0  0  0  0  0  0  0  0  0  0  0
  -17.5687   22.6003   31.2747 N   0  0  0  0  0  0  0  0  0  0  0  0
  -18.3758   19.5827   26.7814 O   0  0  0  0  0  0  0  0  0  0  0  0
  -18.5889   18.2389   27.1337 C   0  0  0  0  0  0  0  0  0  0  0  0
  -19.9109   17.8496   27.4593 C   0  0  0  0  0  0  0  0  0  0  0  0
  -20.2259   16.5179   27.8039 C   0  0  0  0  0  0  0  0  0  0  0  0
  -19.1874   15.5554   27.9179 C   0  0  0  0  0  0  0  0  0  0  0  0
  -19.3365   14.0807   28.4246 C   0  0  0  0  0  0  0  0  0  0  0  0
  -17.9034   15.9864   27.5785 C   0  0  0  0  0  0  0  0  0  0  0  0
  -17.6452   17.2596   27.2451 C   0  0  0  0  0  0  0  0  0  0  0  0
  -15.7557   21.4351   30.0694 C   0  0  0  0  0  0  0  0  0  0  0  0
  -16.1535   22.5782   30.9965 C   0  0  0  0  0  0  0  0  0  0  0  0
  -17.9412   23.7834   32.2547 C   0  0  0  0  0  0  0  0  0  0  0  0
  -18.3143   22.8087   29.9149 C   0  0  0  0  0  0  0  0  0  0  0  0
  -17.9887   21.6762   28.9148 C   0  0  0  0  0  0  0  0  0  0  0  0
  -17.2701   21.2570   26.1658 H   0  0  0  0  0  0  0  0  0  0  0  0
  -16.4897   19.6875   25.8409 H   0  0  0  0  0  0  0  0  0  0  0  0
  -20.7356   18.5666   27.4333 H   0  0  0  0  0  0  0  0  0  0  0  0
  -21.2585   16.2504   28.0075 H   0  0  0  0  0  0  0  0  0  0  0  0
  -20.2894   13.6203   28.1436 H   0  0  0  0  0  0  0  0  0  0  0  0
  -18.5414   13.4617   27.9949 H   0  0  0  0  0  0  0  0  0  0  0  0
  -19.2066   13.9938   29.5013 H   0  0  0  0  0  0  0  0  0  0  0  0
  -17.1752   15.2293   27.3346 H   0  0  0  0  0  0  0  0  0  0  0  0
  -16.6591   17.5061   26.8782 H   0  0  0  0  0  0  0  0  0  0  0  0
  -15.8538   20.4589   30.5650 H   0  0  0  0  0  0  0  0  0  0  0  0
  -14.6683   21.4310   29.8834 H   0  0  0  0  0  0  0  0  0  0  0  0
  -15.8849   23.5208   30.5314 H   0  0  0  0  0  0  0  0  0  0  0  0
  -15.5487   22.5808   31.9080 H   0  0  0  0  0  0  0  0  0  0  0  0
  -17.7973   21.7378   31.7892 H   0  0  0  0  0  0  0  0  0  0  0  0
  -17.4623   23.4779   33.1839 H   0  0  0  0  0  0  0  0  0  0  0  0
  -17.6525   24.7560   31.8512 H   0  0  0  0  0  0  0  0  0  0  0  0
  -19.0074   23.7576   32.4791 H   0  0  0  0  0  0  0  0  0  0  0  0
  -17.9271   23.7392   29.5059 H   0  0  0  0  0  0  0  0  0  0  0  0
  -19.3906   22.8529   30.0832 H   0  0  0  0  0  0  0  0  0  0  0  0
  -18.5010   21.9834   27.9997 H   0  0  0  0  0  0  0  0  0  0  0  0
  -18.4568   20.7481   29.2816 H   0  0  0  0  0  0  0  0  0  0  0  0
  1 14  1  0  0  0  0
  1 18  1  0  0  0  0
  1  2  1  0  0  0  0
  2  3  2  0  0  0  0
  2  4  1  0  0  0  0
  4 19  1  0  0  0  0
  4 20  1  0  0  0  0
  5 16  1  0  0  0  0
  5 17  1  0  0  0  0
  5 32  1  0  0  0  0
  4  6  1  0  0  0  0
  6  7  1  0  0  0  0
  7  8  1  0  0  0  0
  8 21  1  0  0  0  0
  8  9  1  0  0  0  0
  9 22  1  0  0  0  0
  9 10  1  0  0  0  0
 10 12  1  0  0  0  0
 10 11  1  0  0  0  0
 11 23  1  0  0  0  0
 11 24  1  0  0  0  0
 11 25  1  0  0  0  0
 12 13  1  0  0  0  0
 12 26  1  0  0  0  0
  7 13  1  0  0  0  0
 13 27  1  0  0  0  0
 14 15  1  0  0  0  0
 14 28  1  0  0  0  0
 14 29  1  0  0  0  0
  5 15  1  0  0  0  0
 15 30  1  0  0  0  0
 15 31  1  0  0  0  0
 16 33  1  0  0  0  0
 16 34  1  0  0  0  0
 16 35  1  0  0  0  0
 17 18  1  0  0  0  0
 17 36  1  0  0  0  0
 17 37  1  0  0  0  0
 18 38  1  0  0  0  0
 18 39  1  0  0  0  0
M  END
>  <pdb_header>
CRYST1   98.984   98.986   98.980  90.00  90.00  90.00 P 1           1 


$$$$
