top4_centroid
  PyMOL2.3          3D                             0

 39 40  0  0  0  0  0  0  0  0999 V2000
  -18.1341   19.8358   26.9436 N   0  0  0  0  0  0  0  0  0  0  0  0
  -18.3349   18.7214   27.6733 C   0  0  0  0  0  0  0  0  0  0  0  0
  -19.4722   18.3189   27.8795 O   0  0  0  0  0  0  0  0  0  0  0  0
  -17.1439   17.9064   28.2402 C   0  0  0  0  0  0  0  0  0  0  0  0
  -17.4974   22.7667   27.1757 N   0  0  0  0  0  0  0  0  0  0  0  0
  -16.7879   16.8177   27.3306 O   0  0  0  0  0  0  0  0  0  0  0  0
  -17.5684   15.6988   27.1437 C   0  0  0  0  0  0  0  0  0  0  0  0
  -18.2851   15.2455   28.2246 C   0  0  0  0  0  0  0  0  0  0  0  0
  -19.1770   14.1808   28.1377 C   0  0  0  0  0  0  0  0  0  0  0  0
  -19.3460   13.4313   26.9354 C   0  0  0  0  0  0  0  0  0  0  0  0
  -20.3635   12.2403   26.8155 C   0  0  0  0  0  0  0  0  0  0  0  0
  -18.4816   13.8217   25.8434 C   0  0  0  0  0  0  0  0  0  0  0  0
  -17.6804   14.9941   25.9402 C   0  0  0  0  0  0  0  0  0  0  0  0
  -19.1142   20.8698   26.6975 C   0  0  0  0  0  0  0  0  0  0  0  0
  -18.8867   22.1083   27.5989 C   0  0  0  0  0  0  0  0  0  0  0  0
  -17.1270   23.9908   28.0547 C   0  0  0  0  0  0  0  0  0  0  0  0
  -16.3556   21.6981   27.2097 C   0  0  0  0  0  0  0  0  0  0  0  0
  -16.7769   20.3381   26.4770 C   0  0  0  0  0  0  0  0  0  0  0  0
  -16.3681   18.6412   28.4856 H   0  0  0  0  0  0  0  0  0  0  0  0
  -17.4291   17.5406   29.2388 H   0  0  0  0  0  0  0  0  0  0  0  0
  -18.1938   15.7180   29.1981 H   0  0  0  0  0  0  0  0  0  0  0  0
  -19.8839   14.0113   28.9517 H   0  0  0  0  0  0  0  0  0  0  0  0
  -21.4031   12.5760   26.7543 H   0  0  0  0  0  0  0  0  0  0  0  0
  -20.1012   11.5628   26.0017 H   0  0  0  0  0  0  0  0  0  0  0  0
  -20.2715   11.7371   27.7863 H   0  0  0  0  0  0  0  0  0  0  0  0
  -18.4355   13.2851   24.9037 H   0  0  0  0  0  0  0  0  0  0  0  0
  -16.9480   15.2530   25.1913 H   0  0  0  0  0  0  0  0  0  0  0  0
  -19.3331   21.1826   25.6646 H   0  0  0  0  0  0  0  0  0  0  0  0
  -20.0889   20.5506   27.0956 H   0  0  0  0  0  0  0  0  0  0  0  0
  -18.7695   21.9137   28.6660 H   0  0  0  0  0  0  0  0  0  0  0  0
  -19.6568   22.8621   27.4902 H   0  0  0  0  0  0  0  0  0  0  0  0
  -17.5385   23.0839   26.1972 H   0  0  0  0  0  0  0  0  0  0  0  0
  -17.7113   24.9016   27.8893 H   0  0  0  0  0  0  0  0  0  0  0  0
  -17.3115   23.7641   29.1076 H   0  0  0  0  0  0  0  0  0  0  0  0
  -16.0924   24.3314   27.9118 H   0  0  0  0  0  0  0  0  0  0  0  0
  -16.2203   21.4622   28.2705 H   0  0  0  0  0  0  0  0  0  0  0  0
  -15.4483   22.1338   26.7829 H   0  0  0  0  0  0  0  0  0  0  0  0
  -15.9931   19.6133   26.7329 H   0  0  0  0  0  0  0  0  0  0  0  0
  -16.7777   20.5026   25.3978 H   0  0  0  0  0  0  0  0  0  0  0  0
  1 14  1  0  0  0  0
  1 18  1  0  0  0  0
  1  2  1  0  0  0  0
  2  3  2  0  0  0  0
  2  4  1  0  0  0  0
  4 19  1  0  0  0  0
  4 20  1  0  0  0  0
  5 16  1  0  0  0  0
  5 17  1  0  0  0  0
  5 32  1  0  0  0  0
  4  6  1  0  0  0  0
  6  7  1  0  0  0  0
  7  8  1  0  0  0  0
  8 21  1  0  0  0  0
  8  9  1  0  0  0  0
  9 22  1  0  0  0  0
  9 10  1  0  0  0  0
 10 12  1  0  0  0  0
 10 11  1  0  0  0  0
 11 23  1  0  0  0  0
 11 24  1  0  0  0  0
 11 25  1  0  0  0  0
 12 13  1  0  0  0  0
 12 26  1  0  0  0  0
  7 13  1  0  0  0  0
 13 27  1  0  0  0  0
 14 15  1  0  0  0  0
 14 28  1  0  0  0  0
 14 29  1  0  0  0  0
  5 15  1  0  0  0  0
 15 30  1  0  0  0  0
 15 31  1  0  0  0  0
 16 33  1  0  0  0  0
 16 34  1  0  0  0  0
 16 35  1  0  0  0  0
 17 18  1  0  0  0  0
 17 36  1  0  0  0  0
 17 37  1  0  0  0  0
 18 38  1  0  0  0  0
 18 39  1  0  0  0  0
M  END
>  <pdb_header>
CRYST1   98.984   98.986   98.980  90.00  90.00  90.00 P 1           1 


$$$$
