top4_centroid
  PyMOL2.3          3D                             0

 27 28  0  0  0  0  0  0  0  0999 V2000
  -23.3110   16.4869   27.2936 N   0  0  0  0  0  0  0  0  0  0  0  0
  -18.5016   13.0048   28.0302 C   0  0  0  0  0  0  0  0  0  0  0  0
  -19.5849   13.4904   27.1292 O   0  0  0  0  0  0  0  0  0  0  0  0
  -20.0257   14.7873   27.2019 C   0  0  0  0  0  0  0  0  0  0  0  0
  -25.4672   16.1433   27.6984 O   0  0  0  0  0  0  0  0  0  0  0  0
  -21.4592   14.9478   27.0397 C   0  0  0  0  0  0  0  0  0  0  0  0
  -21.9235   16.2249   27.3038 C   0  0  0  0  0  0  0  0  0  0  0  0
  -24.2839   15.8704   27.9174 C   0  0  0  0  0  0  0  0  0  0  0  0
  -23.7769   14.7121   28.8145 C   0  0  0  0  0  0  0  0  0  0  0  0
  -23.2899   13.4651   28.0780 C   0  0  0  0  0  0  0  0  0  0  0  0
  -22.3950   13.7737   26.8262 C   0  0  0  0  0  0  0  0  0  0  0  0
  -21.0485   17.3163   27.5194 C   0  0  0  0  0  0  0  0  0  0  0  0
  -19.6739   17.1247   27.4613 C   0  0  0  0  0  0  0  0  0  0  0  0
  -19.1498   15.8065   27.3526 C   0  0  0  0  0  0  0  0  0  0  0  0
  -18.4122   11.9175   27.8766 H   0  0  0  0  0  0  0  0  0  0  0  0
  -18.8069   13.1898   29.0639 H   0  0  0  0  0  0  0  0  0  0  0  0
  -17.4897   13.4023   27.8415 H   0  0  0  0  0  0  0  0  0  0  0  0
  -23.5894   17.3931   26.9221 H   0  0  0  0  0  0  0  0  0  0  0  0
  -22.9330   15.1545   29.3689 H   0  0  0  0  0  0  0  0  0  0  0  0
  -24.5214   14.4913   29.5805 H   0  0  0  0  0  0  0  0  0  0  0  0
  -22.7764   12.9095   28.8764 H   0  0  0  0  0  0  0  0  0  0  0  0
  -24.1670   12.8819   27.7714 H   0  0  0  0  0  0  0  0  0  0  0  0
  -23.1117   14.1153   26.0771 H   0  0  0  0  0  0  0  0  0  0  0  0
  -21.9037   12.8658   26.4499 H   0  0  0  0  0  0  0  0  0  0  0  0
  -21.4419   18.3143   27.6863 H   0  0  0  0  0  0  0  0  0  0  0  0
  -18.9642   17.9264   27.6088 H   0  0  0  0  0  0  0  0  0  0  0  0
  -18.0801   15.6853   27.4176 H   0  0  0  0  0  0  0  0  0  0  0  0
  1  8  1  0  0  0  0
  1 18  1  0  0  0  0
  2 15  1  0  0  0  0
  2 16  1  0  0  0  0
  2 17  1  0  0  0  0
  2  3  2  0  0  0  0
  3  4  1  0  0  0  0
  4 14  1  0  0  0  0
  4  6  1  0  0  0  0
  6  7  1  0  0  0  0
  6 11  1  0  0  0  0
  1  7  1  0  0  0  0
  5  8  1  0  0  0  0
  8  9  1  0  0  0  0
  9 10  1  0  0  0  0
  9 19  1  0  0  0  0
  9 20  1  0  0  0  0
 10 11  1  0  0  0  0
 10 21  1  0  0  0  0
 10 22  1  0  0  0  0
 11 23  1  0  0  0  0
 11 24  1  0  0  0  0
  7 12  1  0  0  0  0
 12 25  1  0  0  0  0
 12 13  1  0  0  0  0
 13 26  1  0  0  0  0
 13 14  1  0  0  0  0
 14 27  1  0  0  0  0
M  END
>  <pdb_header>
CRYST1   99.313   99.315   99.309  90.00  90.00  90.00 P 1           1 


$$$$
