top1_centroid
  PyMOL2.3          3D                             0

 28 29  0  0  0  0  0  0  0  0999 V2000
  -23.2893   12.5032   26.2950 N   0  0  0  0  0  0  0  0  0  0  0  0
  -22.5989   12.7834   27.4579 C   0  0  0  0  0  0  0  0  0  0  0  0
  -23.1397   12.5996   28.5259 O   0  0  0  0  0  0  0  0  0  0  0  0
  -21.2208   13.4849   27.2308 C   0  0  0  0  0  0  0  0  0  0  0  0
  -19.5617   14.9512   28.3480 N   0  0  0  0  0  0  0  0  0  0  0  0
  -20.8417   14.2476   28.5304 C   0  0  0  0  0  0  0  0  0  0  0  0
  -17.4217   15.3431   27.5801 N   0  0  0  0  0  0  0  0  0  0  0  0
  -18.2685   14.4195   28.2147 C   0  0  0  0  0  0  0  0  0  0  0  0
  -17.9741   12.9923   28.3494 C   0  0  0  0  0  0  0  0  0  0  0  0
  -18.2567   16.4477   27.4461 C   0  0  0  0  0  0  0  0  0  0  0  0
  -19.5388   16.2390   27.9309 C   0  0  0  0  0  0  0  0  0  0  0  0
  -20.5097   17.2317   28.0200 C   0  0  0  0  0  0  0  0  0  0  0  0
  -20.1758   18.4682   27.4311 C   0  0  0  0  0  0  0  0  0  0  0  0
  -18.8246   18.7300   27.0304 C   0  0  0  0  0  0  0  0  0  0  0  0
  -17.8857   17.7482   26.9886 C   0  0  0  0  0  0  0  0  0  0  0  0
  -24.2400   12.1658   26.3748 H   0  0  0  0  0  0  0  0  0  0  0  0
  -22.8269   12.6202   25.3967 H   0  0  0  0  0  0  0  0  0  0  0  0
  -20.4228   12.7668   27.0223 H   0  0  0  0  0  0  0  0  0  0  0  0
  -21.2403   14.1857   26.3857 H   0  0  0  0  0  0  0  0  0  0  0  0
  -20.8446   13.5718   29.3942 H   0  0  0  0  0  0  0  0  0  0  0  0
  -21.6463   14.9320   28.8406 H   0  0  0  0  0  0  0  0  0  0  0  0
  -18.5841   12.3565   29.0087 H   0  0  0  0  0  0  0  0  0  0  0  0
  -16.9578   12.9012   28.7465 H   0  0  0  0  0  0  0  0  0  0  0  0
  -18.0943   12.4712   27.3878 H   0  0  0  0  0  0  0  0  0  0  0  0
  -21.5539   17.0126   28.2634 H   0  0  0  0  0  0  0  0  0  0  0  0
  -20.8860   19.2763   27.2922 H   0  0  0  0  0  0  0  0  0  0  0  0
  -18.6359   19.6420   26.4738 H   0  0  0  0  0  0  0  0  0  0  0  0
  -16.8865   18.0389   26.6726 H   0  0  0  0  0  0  0  0  0  0  0  0
  1 16  1  0  0  0  0
  1 17  1  0  0  0  0
  1  2  1  0  0  0  0
  2  4  1  0  0  0  0
  2  3  2  0  0  0  0
  4  6  1  0  0  0  0
  4 18  1  0  0  0  0
  4 19  1  0  0  0  0
  5  8  1  0  0  0  0
  5 11  1  0  0  0  0
  5  6  1  0  0  0  0
  6 20  1  0  0  0  0
  6 21  1  0  0  0  0
  7 10  1  0  0  0  0
  7  8  1  0  0  0  0
  8  9  1  0  0  0  0
  9 22  1  0  0  0  0
  9 23  1  0  0  0  0
  9 24  1  0  0  0  0
 10 11  1  0  0  0  0
 10 15  1  0  0  0  0
 11 12  1  0  0  0  0
 12 13  1  0  0  0  0
 12 25  1  0  0  0  0
 13 14  1  0  0  0  0
 13 26  1  0  0  0  0
 14 15  1  0  0  0  0
 14 27  1  0  0  0  0
 15 28  1  0  0  0  0
M  END
>  <pdb_header>
CRYST1   99.204   99.206   99.200  90.00  90.00  90.00 P 1           1 


$$$$
