top1_centroid
  PyMOL2.3          3D                             0

 27 28  0  0  0  0  0  0  0  0999 V2000
  -17.3493   16.0446   25.8979 N   0  0  0  0  0  0  0  0  0  0  0  0
  -15.3328   17.3223   26.3051 C   0  0  0  0  0  0  0  0  0  0  0  0
  -16.6281   16.9706   26.6390 C   0  0  0  0  0  0  0  0  0  0  0  0
  -19.5899   12.0321   24.8762 N   0  0  0  0  0  0  0  0  0  0  0  0
  -18.0321   14.9257   26.5590 C   0  0  0  0  0  0  0  0  0  0  0  0
  -18.5548   12.3951   24.0091 N   0  0  0  0  0  0  0  0  0  0  0  0
  -18.4554   13.8860   25.6638 C   0  0  0  0  0  0  0  0  0  0  0  0
  -19.4699   12.8629   25.8890 C   0  0  0  0  0  0  0  0  0  0  0  0
  -20.2643   12.8964   27.2105 C   0  0  0  0  0  0  0  0  0  0  0  0
  -17.9666   13.6902   24.4063 C   0  0  0  0  0  0  0  0  0  0  0  0
  -17.2286   17.4970   27.7907 C   0  0  0  0  0  0  0  0  0  0  0  0
  -16.5927   18.3878   28.6006 C   0  0  0  0  0  0  0  0  0  0  0  0
  -15.2956   18.8171   28.2077 C   0  0  0  0  0  0  0  0  0  0  0  0
  -14.6621   18.3009   27.0547 C   0  0  0  0  0  0  0  0  0  0  0  0
  -14.6772   16.8128   25.1907 F   0  0  0  0  0  0  0  0  0  0  0  0
  -17.0676   15.8465   24.9403 H   0  0  0  0  0  0  0  0  0  0  0  0
  -17.3033   14.4148   27.1935 H   0  0  0  0  0  0  0  0  0  0  0  0
  -18.8229   15.3880   27.1551 H   0  0  0  0  0  0  0  0  0  0  0  0
  -21.1074   13.5972   27.2680 H   0  0  0  0  0  0  0  0  0  0  0  0
  -19.6536   13.0620   28.1140 H   0  0  0  0  0  0  0  0  0  0  0  0
  -20.6157   11.8860   27.4324 H   0  0  0  0  0  0  0  0  0  0  0  0
  -18.4615   11.9050   23.1424 H   0  0  0  0  0  0  0  0  0  0  0  0
  -17.2700   14.2079   23.7630 H   0  0  0  0  0  0  0  0  0  0  0  0
  -18.2568   17.2526   28.0492 H   0  0  0  0  0  0  0  0  0  0  0  0
  -17.0125   18.8429   29.4963 H   0  0  0  0  0  0  0  0  0  0  0  0
  -14.8608   19.6507   28.7448 H   0  0  0  0  0  0  0  0  0  0  0  0
  -13.6908   18.6775   26.7555 H   0  0  0  0  0  0  0  0  0  0  0  0
  1  3  1  0  0  0  0
  1 16  1  0  0  0  0
  2 14  1  0  0  0  0
  2 15  1  0  0  0  0
  2  3  1  0  0  0  0
  3 11  1  0  0  0  0
  4  8  1  0  0  0  0
  1  5  1  0  0  0  0
  5 17  1  0  0  0  0
  5 18  1  0  0  0  0
  4  6  1  0  0  0  0
  6 10  1  0  0  0  0
  6 22  1  0  0  0  0
  5  7  1  0  0  0  0
  7  8  1  0  0  0  0
  8  9  1  0  0  0  0
  9 19  1  0  0  0  0
  9 20  1  0  0  0  0
  9 21  1  0  0  0  0
  7 10  1  0  0  0  0
 10 23  1  0  0  0  0
 11 24  1  0  0  0  0
 11 12  1  0  0  0  0
 12 25  1  0  0  0  0
 12 13  1  0  0  0  0
 13 26  1  0  0  0  0
 13 14  1  0  0  0  0
 14 27  1  0  0  0  0
M  END
>  <pdb_header>
CRYST1   99.166   99.168   99.162  90.00  90.00  90.00 P 1           1 


$$$$
