
     RDKit          3D

 20 20  0  0  0  0  0  0  0  0999 V2000
  -23.3555   10.9516   32.3660 O   0  0  0  0  0  0  0  0  0  0  0  0
  -23.3504   11.2578   31.1575 C   0  0  0  0  0  0  0  0  0  0  0  0
  -23.6790   12.5762   30.7876 N   0  0  0  0  0  0  0  0  0  0  0  0
  -24.0143   13.5468   31.8250 C   0  0  0  0  0  0  0  0  0  0  0  0
  -23.3191   14.3900   31.7706 H   0  0  0  0  0  0  0  0  0  0  0  0
  -23.9473   13.1211   32.8302 H   0  0  0  0  0  0  0  0  0  0  0  0
  -25.0412   13.8949   31.6741 H   0  0  0  0  0  0  0  0  0  0  0  0
  -23.6974   12.9631   29.4281 C   0  0  0  0  0  0  0  0  0  0  0  0
  -24.0779   14.3701   29.0598 C   0  0  0  0  0  0  0  0  0  0  0  0
  -25.0964   14.5961   29.3921 H   0  0  0  0  0  0  0  0  0  0  0  0
  -24.0496   14.5286   27.9763 H   0  0  0  0  0  0  0  0  0  0  0  0
  -23.3879   15.0908   29.5085 H   0  0  0  0  0  0  0  0  0  0  0  0
  -23.3555   12.0555   28.4641 C   0  0  0  0  0  0  0  0  0  0  0  0
  -23.3613   12.3409   27.4438 H   0  0  0  0  0  0  0  0  0  0  0  0
  -22.9961   10.7199   28.7903 C   0  0  0  0  0  0  0  0  0  0  0  0
  -22.7423   10.0373   28.0209 H   0  0  0  0  0  0  0  0  0  0  0  0
  -22.9979   10.3248   30.0950 C   0  0  0  0  0  0  0  0  0  0  0  0
  -22.6729    9.0494   30.4857 N   0  0  0  0  0  0  0  0  0  0  0  0
  -22.4161    8.3416   29.8129 H   0  0  0  0  0  0  0  0  0  0  0  0
  -22.6994    8.8437   31.4816 H   0  0  0  0  0  0  0  0  0  0  0  0
  1  2  2  0
  2  3  1  0
  2 17  1  0
  3  4  1  0
  3  8  1  0
  4  5  1  0
  4  6  1  0
  4  7  1  0
  8  9  1  0
  8 13  2  0
  9 10  1  0
  9 11  1  0
  9 12  1  0
 13 14  1  0
 13 15  1  0
 15 16  1  0
 15 17  2  0
 17 18  1  0
 18 19  1  0
 18 20  1  0
M  END
$$$$
