top4_centroid
  PyMOL2.3          3D                             0

 20 20  0  0  0  0  0  0  0  0999 V2000
  -14.6957   17.5572   28.6539 N   0  0  0  0  0  0  0  0  0  0  0  0
  -16.9894   17.0645   27.4600 C   0  0  0  0  0  0  0  0  0  0  0  0
  -15.1826   19.0482   26.9341 O   0  0  0  0  0  0  0  0  0  0  0  0
  -18.2550   16.7505   28.1176 C   0  0  0  0  0  0  0  0  0  0  0  0
  -16.4514   19.0698   29.2572 O   0  0  0  0  0  0  0  0  0  0  0  0
  -18.9918   15.6068   27.7553 C   0  0  0  0  0  0  0  0  0  0  0  0
  -18.5078   14.7680   26.7653 C   0  0  0  0  0  0  0  0  0  0  0  0
  -17.3769   15.1105   26.0058 C   0  0  0  0  0  0  0  0  0  0  0  0
  -16.7826   14.2444   24.9990 C   0  0  0  0  0  0  0  0  0  0  0  0
  -16.6382   16.2402   26.3711 C   0  0  0  0  0  0  0  0  0  0  0  0
  -20.1661   15.3075   28.4041 F   0  0  0  0  0  0  0  0  0  0  0  0
  -15.9248   18.3469   28.0411 S   0  0  0  0  0  0  0  0  0  0  0  0
  -13.9870   18.1760   28.2616 H   0  0  0  0  0  0  0  0  0  0  0  0
  -14.8439   18.0256   29.5441 H   0  0  0  0  0  0  0  0  0  0  0  0
  -18.5204   17.2149   29.0582 H   0  0  0  0  0  0  0  0  0  0  0  0
  -19.0650   13.8750   26.4663 H   0  0  0  0  0  0  0  0  0  0  0  0
  -15.7379   14.4960   24.8060 H   0  0  0  0  0  0  0  0  0  0  0  0
  -17.2642   14.3185   24.0175 H   0  0  0  0  0  0  0  0  0  0  0  0
  -16.8056   13.1666   25.1947 H   0  0  0  0  0  0  0  0  0  0  0  0
  -15.6945   16.4936   25.9157 H   0  0  0  0  0  0  0  0  0  0  0  0
  1 13  1  0  0  0  0
  1 14  1  0  0  0  0
  2  4  1  0  0  0  0
  2 10  1  0  0  0  0
  3 12  1  0  0  0  0
  4  6  1  0  0  0  0
  4 15  1  0  0  0  0
  6  7  1  0  0  0  0
  6 11  1  0  0  0  0
  7  8  1  0  0  0  0
  7 16  1  0  0  0  0
  8  9  1  0  0  0  0
  9 17  1  0  0  0  0
  9 18  1  0  0  0  0
  9 19  1  0  0  0  0
  8 10  1  0  0  0  0
 10 20  1  0  0  0  0
  1 12  1  0  0  0  0
  2 12  1  0  0  0  0
  5 12  1  0  0  0  0
M  END
>  <pdb_header>
CRYST1   99.222   99.224   99.219  90.00  90.00  90.00 P 1           1 


$$$$
