top5_centroid
  PyMOL2.3          3D                             0

 27 28  0  0  0  0  0  0  0  0999 V2000
  -19.7424   20.5278   26.7368 N   0  0  0  0  0  0  0  0  0  0  0  0
  -18.7324   14.5379   28.0746 C   0  0  0  0  0  0  0  0  0  0  0  0
  -19.5112   15.8009   27.9352 O   0  0  0  0  0  0  0  0  0  0  0  0
  -18.8852   16.9290   27.4457 C   0  0  0  0  0  0  0  0  0  0  0  0
  -21.3865   21.7801   25.8507 O   0  0  0  0  0  0  0  0  0  0  0  0
  -19.6594   18.1469   27.3430 C   0  0  0  0  0  0  0  0  0  0  0  0
  -18.9528   19.3484   26.9558 C   0  0  0  0  0  0  0  0  0  0  0  0
  -20.8253   20.6838   25.9601 C   0  0  0  0  0  0  0  0  0  0  0  0
  -21.2662   19.3497   25.1908 C   0  0  0  0  0  0  0  0  0  0  0  0
  -21.9831   18.4702   26.2590 C   0  0  0  0  0  0  0  0  0  0  0  0
  -21.1778   18.2301   27.5464 C   0  0  0  0  0  0  0  0  0  0  0  0
  -17.6128   19.3422   26.7666 C   0  0  0  0  0  0  0  0  0  0  0  0
  -16.7741   18.1824   26.8831 C   0  0  0  0  0  0  0  0  0  0  0  0
  -17.4535   17.0148   27.1343 C   0  0  0  0  0  0  0  0  0  0  0  0
  -18.0701   14.3369   27.2203 H   0  0  0  0  0  0  0  0  0  0  0  0
  -19.2986   13.6404   28.3609 H   0  0  0  0  0  0  0  0  0  0  0  0
  -17.9564   14.6456   28.8462 H   0  0  0  0  0  0  0  0  0  0  0  0
  -19.2666   21.3636   27.0630 H   0  0  0  0  0  0  0  0  0  0  0  0
  -22.0528   19.5428   24.4672 H   0  0  0  0  0  0  0  0  0  0  0  0
  -20.4191   18.8728   24.6834 H   0  0  0  0  0  0  0  0  0  0  0  0
  -22.9147   19.0211   26.4204 H   0  0  0  0  0  0  0  0  0  0  0  0
  -22.2039   17.5133   25.7642 H   0  0  0  0  0  0  0  0  0  0  0  0
  -21.7096   17.3771   27.9791 H   0  0  0  0  0  0  0  0  0  0  0  0
  -21.3372   19.0393   28.2649 H   0  0  0  0  0  0  0  0  0  0  0  0
  -17.1479   20.3237   26.7089 H   0  0  0  0  0  0  0  0  0  0  0  0
  -15.7092   18.3024   26.6996 H   0  0  0  0  0  0  0  0  0  0  0  0
  -16.7954   16.1518   27.2436 H   0  0  0  0  0  0  0  0  0  0  0  0
  1  8  1  0  0  0  0
  1 18  1  0  0  0  0
  2 15  1  0  0  0  0
  2 16  1  0  0  0  0
  2 17  1  0  0  0  0
  2  3  2  0  0  0  0
  3  4  1  0  0  0  0
  4 14  1  0  0  0  0
  4  6  1  0  0  0  0
  6  7  1  0  0  0  0
  6 11  1  0  0  0  0
  1  7  1  0  0  0  0
  5  8  1  0  0  0  0
  8  9  1  0  0  0  0
  9 10  1  0  0  0  0
  9 19  1  0  0  0  0
  9 20  1  0  0  0  0
 10 11  1  0  0  0  0
 10 21  1  0  0  0  0
 10 22  1  0  0  0  0
 11 23  1  0  0  0  0
 11 24  1  0  0  0  0
  7 12  1  0  0  0  0
 12 25  1  0  0  0  0
 12 13  1  0  0  0  0
 13 26  1  0  0  0  0
 13 14  1  0  0  0  0
 14 27  1  0  0  0  0
M  END
>  <pdb_header>
CRYST1   99.313   99.315   99.309  90.00  90.00  90.00 P 1           1 


$$$$
