top2_centroid
  PyMOL2.3          3D                             0

 20 20  0  0  0  0  0  0  0  0999 V2000
  -23.1221   16.3761   29.0947 N   0  0  0  0  0  0  0  0  0  0  0  0
  -21.0905   15.4873   27.5747 C   0  0  0  0  0  0  0  0  0  0  0  0
  -22.7079   17.4923   27.0506 O   0  0  0  0  0  0  0  0  0  0  0  0
  -20.9880   14.1274   27.9105 C   0  0  0  0  0  0  0  0  0  0  0  0
  -23.7231   15.1679   27.1573 O   0  0  0  0  0  0  0  0  0  0  0  0
  -19.7598   13.5666   28.1157 C   0  0  0  0  0  0  0  0  0  0  0  0
  -18.5731   14.3995   27.9869 C   0  0  0  0  0  0  0  0  0  0  0  0
  -18.7227   15.6662   27.7387 C   0  0  0  0  0  0  0  0  0  0  0  0
  -17.6243   16.6597   27.7455 C   0  0  0  0  0  0  0  0  0  0  0  0
  -19.9616   16.2588   27.5774 C   0  0  0  0  0  0  0  0  0  0  0  0
  -19.6094   12.2440   28.3644 F   0  0  0  0  0  0  0  0  0  0  0  0
  -22.7419   16.1622   27.5525 S   0  0  0  0  0  0  0  0  0  0  0  0
  -23.2319   17.3813   28.9993 H   0  0  0  0  0  0  0  0  0  0  0  0
  -24.0521   15.9654   29.0855 H   0  0  0  0  0  0  0  0  0  0  0  0
  -21.8842   13.5232   27.9889 H   0  0  0  0  0  0  0  0  0  0  0  0
  -17.6318   13.9157   28.2218 H   0  0  0  0  0  0  0  0  0  0  0  0
  -17.2104   16.7206   26.7239 H   0  0  0  0  0  0  0  0  0  0  0  0
  -16.8267   16.2987   28.4022 H   0  0  0  0  0  0  0  0  0  0  0  0
  -17.8680   17.6063   28.2350 H   0  0  0  0  0  0  0  0  0  0  0  0
  -20.0577   17.3104   27.3192 H   0  0  0  0  0  0  0  0  0  0  0  0
  1 13  1  0  0  0  0
  1 14  1  0  0  0  0
  2  4  1  0  0  0  0
  2 10  1  0  0  0  0
  3 12  1  0  0  0  0
  4  6  1  0  0  0  0
  4 15  1  0  0  0  0
  6  7  1  0  0  0  0
  6 11  1  0  0  0  0
  7  8  1  0  0  0  0
  7 16  1  0  0  0  0
  8  9  1  0  0  0  0
  9 17  1  0  0  0  0
  9 18  1  0  0  0  0
  9 19  1  0  0  0  0
  8 10  1  0  0  0  0
 10 20  1  0  0  0  0
  1 12  1  0  0  0  0
  2 12  1  0  0  0  0
  5 12  1  0  0  0  0
M  END
>  <pdb_header>
CRYST1   99.222   99.224   99.219  90.00  90.00  90.00 P 1           1 


$$$$
