top1_centroid
  PyMOL2.3          3D                             0

 24 25  0  0  0  0  0  0  0  0999 V2000
  -15.9113   16.0733   26.0776 N   0  0  0  0  0  0  0  0  0  0  0  0
  -14.0895   17.8031   26.2965 C   0  0  0  0  0  0  0  0  0  0  0  0
  -16.0863   19.3221   26.1587 O   0  0  0  0  0  0  0  0  0  0  0  0
  -15.0928   16.8055   26.9077 C   0  0  0  0  0  0  0  0  0  0  0  0
  -15.2969   16.5422   28.2590 N   0  0  0  0  0  0  0  0  0  0  0  0
  -13.7054   20.2490   25.9746 O   0  0  0  0  0  0  0  0  0  0  0  0
  -16.6289   15.3091   26.9072 C   0  0  0  0  0  0  0  0  0  0  0  0
  -16.2940   15.6157   28.1609 C   0  0  0  0  0  0  0  0  0  0  0  0
  -16.9703   14.9979   29.1857 C   0  0  0  0  0  0  0  0  0  0  0  0
  -18.0698   14.1474   28.9059 C   0  0  0  0  0  0  0  0  0  0  0  0
  -18.3568   13.8799   27.6051 C   0  0  0  0  0  0  0  0  0  0  0  0
  -17.6685   14.5731   26.5535 C   0  0  0  0  0  0  0  0  0  0  0  0
  -14.7126   19.6534   28.2140 C   0  0  0  0  0  0  0  0  0  0  0  0
  -14.6961   19.3577   26.5308 S   0  0  0  0  0  0  0  0  0  0  0  0
  -13.9000   17.6797   25.2202 H   0  0  0  0  0  0  0  0  0  0  0  0
  -13.1028   17.7754   26.7735 H   0  0  0  0  0  0  0  0  0  0  0  0
  -16.0823   16.1201   25.0888 H   0  0  0  0  0  0  0  0  0  0  0  0
  -16.7370   15.3383   30.1925 H   0  0  0  0  0  0  0  0  0  0  0  0
  -18.6311   13.5873   29.6600 H   0  0  0  0  0  0  0  0  0  0  0  0
  -19.2724   13.3139   27.4552 H   0  0  0  0  0  0  0  0  0  0  0  0
  -18.0071   14.4151   25.5320 H   0  0  0  0  0  0  0  0  0  0  0  0
  -13.7814   19.3439   28.6910 H   0  0  0  0  0  0  0  0  0  0  0  0
  -15.6168   19.1709   28.6027 H   0  0  0  0  0  0  0  0  0  0  0  0
  -14.7927   20.7403   28.2862 H   0  0  0  0  0  0  0  0  0  0  0  0
  1  7  1  0  0  0  0
  1 17  1  0  0  0  0
  2  4  1  0  0  0  0
  2 15  1  0  0  0  0
  2 16  1  0  0  0  0
  3 14  1  0  0  0  0
  1  4  1  0  0  0  0
  4  5  1  0  0  0  0
  5  8  1  0  0  0  0
  7  8  1  0  0  0  0
  7 12  1  0  0  0  0
  8  9  1  0  0  0  0
  9 10  1  0  0  0  0
  9 18  1  0  0  0  0
 10 11  1  0  0  0  0
 10 19  1  0  0  0  0
 11 12  1  0  0  0  0
 11 20  1  0  0  0  0
 12 21  1  0  0  0  0
 13 22  1  0  0  0  0
 13 23  1  0  0  0  0
 13 24  1  0  0  0  0
  2 14  1  0  0  0  0
  6 14  1  0  0  0  0
 13 14  1  0  0  0  0
M  END
>  <pdb_header>
CRYST1   99.211   99.213   99.207  90.00  90.00  90.00 P 1           1 


$$$$
