top4_centroid
  PyMOL2.3          3D                             0

 35 37  0  0  0  0  0  0  0  0999 V2000
  -18.0704   13.4178   26.6722 N   0  0  0  0  0  0  0  0  0  0  0  0
  -17.8291   10.7684   23.4319 C   0  0  0  0  0  0  0  0  0  0  0  0
  -21.2341   16.6065   28.6502 O   0  0  0  0  0  0  0  0  0  0  0  0
  -16.9547   11.8265   23.4779 C   0  0  0  0  0  0  0  0  0  0  0  0
  -19.7708   14.8998   28.4496 N   0  0  0  0  0  0  0  0  0  0  0  0
  -17.0194   12.7192   24.6256 C   0  0  0  0  0  0  0  0  0  0  0  0
  -17.9929   12.5460   25.5791 C   0  0  0  0  0  0  0  0  0  0  0  0
  -18.2405   12.9375   28.0230 C   0  0  0  0  0  0  0  0  0  0  0  0
  -19.5164   13.4113   28.6634 C   0  0  0  0  0  0  0  0  0  0  0  0
  -21.0012   15.4443   28.7776 C   0  0  0  0  0  0  0  0  0  0  0  0
  -22.0638   14.5101   29.1912 C   0  0  0  0  0  0  0  0  0  0  0  0
  -22.8795   13.8679   28.1044 C   0  0  0  0  0  0  0  0  0  0  0  0
  -23.4892   14.9280   28.9321 C   0  0  0  0  0  0  0  0  0  0  0  0
  -18.6446   15.6026   27.8469 C   0  0  0  0  0  0  0  0  0  0  0  0
  -18.0883   14.8864   26.5454 C   0  0  0  0  0  0  0  0  0  0  0  0
  -18.9972   11.5797   25.4545 C   0  0  0  0  0  0  0  0  0  0  0  0
  -18.8663   10.7522   24.3590 C   0  0  0  0  0  0  0  0  0  0  0  0
  -17.8748    9.8928   22.3856 F   0  0  0  0  0  0  0  0  0  0  0  0
  -16.0946   11.8791   22.8246 H   0  0  0  0  0  0  0  0  0  0  0  0
  -16.2299   13.4548   24.8292 H   0  0  0  0  0  0  0  0  0  0  0  0
  -18.2824   11.8450   27.9770 H   0  0  0  0  0  0  0  0  0  0  0  0
  -17.3511   13.2221   28.6051 H   0  0  0  0  0  0  0  0  0  0  0  0
  -19.3856   13.3860   29.7470 H   0  0  0  0  0  0  0  0  0  0  0  0
  -20.3944   12.8775   28.2816 H   0  0  0  0  0  0  0  0  0  0  0  0
  -21.9085   13.9557   30.1072 H   0  0  0  0  0  0  0  0  0  0  0  0
  -22.4017   14.0367   27.1398 H   0  0  0  0  0  0  0  0  0  0  0  0
  -23.4224   12.9550   28.3175 H   0  0  0  0  0  0  0  0  0  0  0  0
  -23.7419   15.9142   28.5630 H   0  0  0  0  0  0  0  0  0  0  0  0
  -24.2117   14.5884   29.6620 H   0  0  0  0  0  0  0  0  0  0  0  0
  -18.9046   16.6285   27.5457 H   0  0  0  0  0  0  0  0  0  0  0  0
  -17.7950   15.6330   28.5383 H   0  0  0  0  0  0  0  0  0  0  0  0
  -17.0818   15.2954   26.3470 H   0  0  0  0  0  0  0  0  0  0  0  0
  -18.6819   15.1127   25.6529 H   0  0  0  0  0  0  0  0  0  0  0  0
  -19.7940   11.4274   26.1750 H   0  0  0  0  0  0  0  0  0  0  0  0
  -19.6340    9.9950   24.1750 H   0  0  0  0  0  0  0  0  0  0  0  0
  1  8  1  0  0  0  0
  1 15  1  0  0  0  0
  2 17  1  0  0  0  0
  2 18  1  0  0  0  0
  2  4  1  0  0  0  0
  4 19  1  0  0  0  0
  5 10  1  0  0  0  0
  4  6  1  0  0  0  0
  6  7  1  0  0  0  0
  6 20  1  0  0  0  0
  1  7  1  0  0  0  0
  8  9  1  0  0  0  0
  8 21  1  0  0  0  0
  8 22  1  0  0  0  0
  5  9  1  0  0  0  0
  9 23  1  0  0  0  0
  9 24  1  0  0  0  0
  3 10  1  0  0  0  0
 10 11  1  0  0  0  0
 11 12  1  0  0  0  0
 11 13  1  0  0  0  0
 11 25  1  0  0  0  0
 12 13  1  0  0  0  0
 12 26  1  0  0  0  0
 12 27  1  0  0  0  0
 13 28  1  0  0  0  0
 13 29  1  0  0  0  0
  5 14  1  0  0  0  0
 14 30  1  0  0  0  0
 14 31  1  0  0  0  0
 14 15  1  0  0  0  0
 15 32  1  0  0  0  0
 15 33  1  0  0  0  0
  7 16  1  0  0  0  0
 16 34  1  0  0  0  0
 16 17  1  0  0  0  0
 17 35  1  0  0  0  0
M  END
>  <pdb_header>
CRYST1   99.192   99.194   99.188  90.00  90.00  90.00 P 1           1 


$$$$
