top3_centroid
  PyMOL2.3          3D                             0

 32 33  0  0  0  0  0  0  0  0999 V2000
  -20.8114   16.4445   27.8097 N   0  0  0  0  0  0  0  0  0  0  0  0
  -19.4900   16.0874   27.8164 C   0  0  0  0  0  0  0  0  0  0  0  0
  -18.5334   16.8264   27.6024 O   0  0  0  0  0  0  0  0  0  0  0  0
  -21.3625   17.7742   27.7506 C   0  0  0  0  0  0  0  0  0  0  0  0
  -21.8118   19.8803   27.5984 N   0  0  0  0  0  0  0  0  0  0  0  0
  -20.7170   18.9769   27.6495 C   0  0  0  0  0  0  0  0  0  0  0  0
  -22.9980   19.2992   27.5100 N   0  0  0  0  0  0  0  0  0  0  0  0
  -21.7667   21.2873   27.2043 C   0  0  0  0  0  0  0  0  0  0  0  0
  -21.3181   21.6500   25.7666 C   0  0  0  0  0  0  0  0  0  0  0  0
  -22.7499   17.9730   27.6423 C   0  0  0  0  0  0  0  0  0  0  0  0
  -19.4230   14.5638   27.9355 C   0  0  0  0  0  0  0  0  0  0  0  0
  -20.0380   13.6340   26.8521 C   0  0  0  0  0  0  0  0  0  0  0  0
  -18.9496   12.6088   26.4629 C   0  0  0  0  0  0  0  0  0  0  0  0
  -17.9962   12.6320   27.6038 C   0  0  0  0  0  0  0  0  0  0  0  0
  -17.9529   14.0798   28.0362 C   0  0  0  0  0  0  0  0  0  0  0  0
  -21.4579   15.6922   28.0274 H   0  0  0  0  0  0  0  0  0  0  0  0
  -19.6821   19.2594   27.6129 H   0  0  0  0  0  0  0  0  0  0  0  0
  -22.7559   21.7266   27.3632 H   0  0  0  0  0  0  0  0  0  0  0  0
  -21.0598   21.8502   27.8392 H   0  0  0  0  0  0  0  0  0  0  0  0
  -21.5019   22.7217   25.6329 H   0  0  0  0  0  0  0  0  0  0  0  0
  -21.7800   21.0796   24.9467 H   0  0  0  0  0  0  0  0  0  0  0  0
  -20.2261   21.5939   25.6834 H   0  0  0  0  0  0  0  0  0  0  0  0
  -23.5564   17.2591   27.6557 H   0  0  0  0  0  0  0  0  0  0  0  0
  -19.8667   14.2672   28.8996 H   0  0  0  0  0  0  0  0  0  0  0  0
  -20.9301   13.1509   27.2729 H   0  0  0  0  0  0  0  0  0  0  0  0
  -20.3498   14.1111   25.9156 H   0  0  0  0  0  0  0  0  0  0  0  0
  -19.4003   11.6198   26.3109 H   0  0  0  0  0  0  0  0  0  0  0  0
  -18.4646   12.9758   25.5405 H   0  0  0  0  0  0  0  0  0  0  0  0
  -17.0168   12.2698   27.2634 H   0  0  0  0  0  0  0  0  0  0  0  0
  -18.3969   12.1166   28.4869 H   0  0  0  0  0  0  0  0  0  0  0  0
  -17.3246   14.6235   27.3157 H   0  0  0  0  0  0  0  0  0  0  0  0
  -17.4496   14.0379   29.0038 H   0  0  0  0  0  0  0  0  0  0  0  0
  1  2  1  0  0  0  0
  1 16  1  0  0  0  0
  2  3  2  0  0  0  0
  2 11  1  0  0  0  0
  1  4  1  0  0  0  0
  5  6  1  0  0  0  0
  5  7  1  0  0  0  0
  4  6  1  0  0  0  0
  6 17  1  0  0  0  0
  7 10  1  0  0  0  0
  5  8  1  0  0  0  0
  8 18  1  0  0  0  0
  8 19  1  0  0  0  0
  8  9  1  0  0  0  0
  9 20  1  0  0  0  0
  9 21  1  0  0  0  0
  9 22  1  0  0  0  0
  4 10  1  0  0  0  0
 10 23  1  0  0  0  0
 11 12  1  0  0  0  0
 11 15  1  0  0  0  0
 11 24  1  0  0  0  0
 12 13  1  0  0  0  0
 12 25  1  0  0  0  0
 12 26  1  0  0  0  0
 13 14  1  0  0  0  0
 13 27  1  0  0  0  0
 13 28  1  0  0  0  0
 14 15  1  0  0  0  0
 14 29  1  0  0  0  0
 14 30  1  0  0  0  0
 15 31  1  0  0  0  0
 15 32  1  0  0  0  0
M  END
>  <pdb_header>
CRYST1   99.080   99.082   99.076  90.00  90.00  90.00 P 1           1 


$$$$
