top4_centroid
  PyMOL2.3          3D                             0

 23 23  0  0  0  0  0  0  0  0999 V2000
  -14.9551   18.5637   28.7986 N   0  0  0  0  0  0  0  0  0  0  0  0
  -17.8182   18.3537   31.1599 C   0  0  0  0  0  0  0  0  0  0  0  0
  -18.5508   16.2554   29.8211 O   0  0  0  0  0  0  0  0  0  0  0  0
  -17.3478   18.3053   28.6256 C   0  0  0  0  0  0  0  0  0  0  0  0
  -16.0166   16.7482   30.3139 O   0  0  0  0  0  0  0  0  0  0  0  0
  -16.1661   18.8274   28.1632 C   0  0  0  0  0  0  0  0  0  0  0  0
  -13.7101   19.2298   28.4680 C   0  0  0  0  0  0  0  0  0  0  0  0
  -16.1714   19.5978   26.9419 C   0  0  0  0  0  0  0  0  0  0  0  0
  -17.3498   19.8934   26.3419 C   0  0  0  0  0  0  0  0  0  0  0  0
  -18.4584   19.1531   26.6552 C   0  0  0  0  0  0  0  0  0  0  0  0
  -18.5013   18.4324   27.8600 C   0  0  0  0  0  0  0  0  0  0  0  0
  -17.3818   17.1757   29.9556 S   0  0  0  0  0  0  0  0  0  0  0  0
  -17.0654   19.1542   31.2411 H   0  0  0  0  0  0  0  0  0  0  0  0
  -18.0233   17.8273   32.1025 H   0  0  0  0  0  0  0  0  0  0  0  0
  -18.7755   18.7767   30.8337 H   0  0  0  0  0  0  0  0  0  0  0  0
  -14.8841   18.0351   29.6627 H   0  0  0  0  0  0  0  0  0  0  0  0
  -12.9484   18.9886   29.2237 H   0  0  0  0  0  0  0  0  0  0  0  0
  -13.8043   20.3245   28.3385 H   0  0  0  0  0  0  0  0  0  0  0  0
  -13.3562   18.7120   27.5756 H   0  0  0  0  0  0  0  0  0  0  0  0
  -15.2851   20.0686   26.5278 H   0  0  0  0  0  0  0  0  0  0  0  0
  -17.2878   20.4537   25.4135 H   0  0  0  0  0  0  0  0  0  0  0  0
  -19.3544   19.2006   26.0329 H   0  0  0  0  0  0  0  0  0  0  0  0
  -19.4217   17.8554   27.9556 H   0  0  0  0  0  0  0  0  0  0  0  0
  1  7  1  0  0  0  0
  1 16  1  0  0  0  0
  2 13  1  0  0  0  0
  2 14  1  0  0  0  0
  2 15  1  0  0  0  0
  3 12  1  0  0  0  0
  4  6  1  0  0  0  0
  4 11  1  0  0  0  0
  1  6  1  0  0  0  0
  6  8  1  0  0  0  0
  7 17  1  0  0  0  0
  7 18  1  0  0  0  0
  7 19  1  0  0  0  0
  8  9  1  0  0  0  0
  8 20  1  0  0  0  0
  9 10  1  0  0  0  0
  9 21  1  0  0  0  0
 10 11  1  0  0  0  0
 10 22  1  0  0  0  0
 11 23  1  0  0  0  0
  2 12  1  0  0  0  0
  4 12  1  0  0  0  0
  5 12  1  0  0  0  0
M  END
>  <pdb_header>
CRYST1   99.371   99.373   99.367  90.00  90.00  90.00 P 1           1 


$$$$
