top1_centroid
  PyMOL2.3          3D                             0

 27 28  0  0  0  0  0  0  0  0999 V2000
  -18.1047   15.7237   25.9320 N   0  0  0  0  0  0  0  0  0  0  0  0
  -18.5547   13.4818   25.1658 C   0  0  0  0  0  0  0  0  0  0  0  0
  -18.4529   14.4069   26.1966 C   0  0  0  0  0  0  0  0  0  0  0  0
  -19.9338   19.4949   26.8513 N   0  0  0  0  0  0  0  0  0  0  0  0
  -17.6597   16.6583   26.9559 C   0  0  0  0  0  0  0  0  0  0  0  0
  -20.8104   18.5727   27.3240 N   0  0  0  0  0  0  0  0  0  0  0  0
  -18.7213   17.7123   27.0396 C   0  0  0  0  0  0  0  0  0  0  0  0
  -18.6276   19.0185   26.7006 C   0  0  0  0  0  0  0  0  0  0  0  0
  -17.3473   19.6879   26.2673 C   0  0  0  0  0  0  0  0  0  0  0  0
  -20.0817   17.4786   27.3787 C   0  0  0  0  0  0  0  0  0  0  0  0
  -18.8577   13.9632   27.4977 C   0  0  0  0  0  0  0  0  0  0  0  0
  -19.1663   12.6215   27.6784 C   0  0  0  0  0  0  0  0  0  0  0  0
  -19.1675   11.7308   26.6274 C   0  0  0  0  0  0  0  0  0  0  0  0
  -18.8823   12.1451   25.3483 C   0  0  0  0  0  0  0  0  0  0  0  0
  -18.2167   13.9365   23.9057 F   0  0  0  0  0  0  0  0  0  0  0  0
  -17.5993   15.9253   25.0798 H   0  0  0  0  0  0  0  0  0  0  0  0
  -17.5727   16.1220   27.9050 H   0  0  0  0  0  0  0  0  0  0  0  0
  -16.6507   17.0486   26.8070 H   0  0  0  0  0  0  0  0  0  0  0  0
  -17.5807   20.5812   25.6758 H   0  0  0  0  0  0  0  0  0  0  0  0
  -16.7324   18.9908   25.6898 H   0  0  0  0  0  0  0  0  0  0  0  0
  -16.6849   19.8481   27.1320 H   0  0  0  0  0  0  0  0  0  0  0  0
  -20.2911   20.3975   26.5618 H   0  0  0  0  0  0  0  0  0  0  0  0
  -20.5275   16.5394   27.7094 H   0  0  0  0  0  0  0  0  0  0  0  0
  -19.0286   14.6910   28.2838 H   0  0  0  0  0  0  0  0  0  0  0  0
  -19.5078   12.3765   28.6858 H   0  0  0  0  0  0  0  0  0  0  0  0
  -19.3681   10.6832   26.8411 H   0  0  0  0  0  0  0  0  0  0  0  0
  -18.8216   11.3892   24.5702 H   0  0  0  0  0  0  0  0  0  0  0  0
  1  3  1  0  0  0  0
  1 16  1  0  0  0  0
  2 14  1  0  0  0  0
  2 15  1  0  0  0  0
  2  3  1  0  0  0  0
  3 11  1  0  0  0  0
  4  8  1  0  0  0  0
  4 22  1  0  0  0  0
  1  5  1  0  0  0  0
  5 17  1  0  0  0  0
  5 18  1  0  0  0  0
  4  6  1  0  0  0  0
  6 10  1  0  0  0  0
  5  7  1  0  0  0  0
  7  8  1  0  0  0  0
  8  9  1  0  0  0  0
  9 19  1  0  0  0  0
  9 20  1  0  0  0  0
  9 21  1  0  0  0  0
  7 10  1  0  0  0  0
 10 23  1  0  0  0  0
 11 24  1  0  0  0  0
 11 12  1  0  0  0  0
 12 25  1  0  0  0  0
 12 13  1  0  0  0  0
 13 26  1  0  0  0  0
 13 14  1  0  0  0  0
 14 27  1  0  0  0  0
M  END
>  <pdb_header>
CRYST1   99.227   99.229   99.223  90.00  90.00  90.00 P 1           1 


$$$$
