top4_centroid
  PyMOL2.3          3D                             0

 28 29  0  0  0  0  0  0  0  0999 V2000
  -17.4157   12.7215   29.0745 N   0  0  0  0  0  0  0  0  0  0  0  0
  -18.0462   13.4321   28.1495 C   0  0  0  0  0  0  0  0  0  0  0  0
  -18.3976   12.9388   27.0990 O   0  0  0  0  0  0  0  0  0  0  0  0
  -18.2789   14.9557   28.4778 C   0  0  0  0  0  0  0  0  0  0  0  0
  -17.9639   17.2801   27.3377 N   0  0  0  0  0  0  0  0  0  0  0  0
  -18.0491   15.8065   27.1932 C   0  0  0  0  0  0  0  0  0  0  0  0
  -18.4865   19.4051   27.8914 N   0  0  0  0  0  0  0  0  0  0  0  0
  -18.9444   18.1085   27.8690 C   0  0  0  0  0  0  0  0  0  0  0  0
  -20.2895   17.7333   28.3200 C   0  0  0  0  0  0  0  0  0  0  0  0
  -17.1780   19.2911   27.4762 C   0  0  0  0  0  0  0  0  0  0  0  0
  -16.8469   18.0310   27.1578 C   0  0  0  0  0  0  0  0  0  0  0  0
  -15.6047   17.6879   26.5543 C   0  0  0  0  0  0  0  0  0  0  0  0
  -14.6330   18.7630   26.4606 C   0  0  0  0  0  0  0  0  0  0  0  0
  -15.0098   20.0555   26.7963 C   0  0  0  0  0  0  0  0  0  0  0  0
  -16.3104   20.3598   27.2842 C   0  0  0  0  0  0  0  0  0  0  0  0
  -17.1636   11.7654   28.8689 H   0  0  0  0  0  0  0  0  0  0  0  0
  -17.1091   13.1982   29.9171 H   0  0  0  0  0  0  0  0  0  0  0  0
  -19.2966   14.9534   28.8889 H   0  0  0  0  0  0  0  0  0  0  0  0
  -17.5125   15.3570   29.1471 H   0  0  0  0  0  0  0  0  0  0  0  0
  -18.7495   15.5183   26.4053 H   0  0  0  0  0  0  0  0  0  0  0  0
  -17.0758   15.5565   26.7390 H   0  0  0  0  0  0  0  0  0  0  0  0
  -20.0673   17.5168   29.3643 H   0  0  0  0  0  0  0  0  0  0  0  0
  -20.6713   16.7786   27.9335 H   0  0  0  0  0  0  0  0  0  0  0  0
  -20.9642   18.5937   28.1847 H   0  0  0  0  0  0  0  0  0  0  0  0
  -15.4473   16.6534   26.2529 H   0  0  0  0  0  0  0  0  0  0  0  0
  -13.6541   18.6716   26.0241 H   0  0  0  0  0  0  0  0  0  0  0  0
  -14.1902   20.7639   26.7318 H   0  0  0  0  0  0  0  0  0  0  0  0
  -16.6000   21.3897   27.4904 H   0  0  0  0  0  0  0  0  0  0  0  0
  1 16  1  0  0  0  0
  1 17  1  0  0  0  0
  1  2  1  0  0  0  0
  2  4  1  0  0  0  0
  2  3  2  0  0  0  0
  4  6  1  0  0  0  0
  4 18  1  0  0  0  0
  4 19  1  0  0  0  0
  5  8  1  0  0  0  0
  5 11  1  0  0  0  0
  5  6  1  0  0  0  0
  6 20  1  0  0  0  0
  6 21  1  0  0  0  0
  7 10  1  0  0  0  0
  7  8  1  0  0  0  0
  8  9  1  0  0  0  0
  9 22  1  0  0  0  0
  9 23  1  0  0  0  0
  9 24  1  0  0  0  0
 10 11  1  0  0  0  0
 10 15  1  0  0  0  0
 11 12  1  0  0  0  0
 12 13  1  0  0  0  0
 12 25  1  0  0  0  0
 13 14  1  0  0  0  0
 13 26  1  0  0  0  0
 14 15  1  0  0  0  0
 14 27  1  0  0  0  0
 15 28  1  0  0  0  0
M  END
>  <pdb_header>
CRYST1   99.105   99.107   99.102  90.00  90.00  90.00 P 1           1 


$$$$
