top5_centroid
  PyMOL2.3          3D                             0

 28 29  0  0  0  0  0  0  0  0999 V2000
  -18.2146   13.6243   26.9837 N   0  0  0  0  0  0  0  0  0  0  0  0
  -19.3368   14.1671   26.3924 C   0  0  0  0  0  0  0  0  0  0  0  0
  -19.6405   13.8727   25.2952 O   0  0  0  0  0  0  0  0  0  0  0  0
  -20.1124   15.1636   27.1847 C   0  0  0  0  0  0  0  0  0  0  0  0
  -22.3993   16.0779   27.5356 N   0  0  0  0  0  0  0  0  0  0  0  0
  -21.6210   15.1266   26.7971 C   0  0  0  0  0  0  0  0  0  0  0  0
  -22.9876   18.2078   28.2993 N   0  0  0  0  0  0  0  0  0  0  0  0
  -22.4963   17.4688   27.2909 C   0  0  0  0  0  0  0  0  0  0  0  0
  -22.0317   18.1804   26.0151 C   0  0  0  0  0  0  0  0  0  0  0  0
  -23.1574   17.2008   29.2925 C   0  0  0  0  0  0  0  0  0  0  0  0
  -22.8934   15.9934   28.8256 C   0  0  0  0  0  0  0  0  0  0  0  0
  -23.0668   14.8493   29.6195 C   0  0  0  0  0  0  0  0  0  0  0  0
  -23.6500   15.0090   30.8904 C   0  0  0  0  0  0  0  0  0  0  0  0
  -24.1283   16.3146   31.2957 C   0  0  0  0  0  0  0  0  0  0  0  0
  -23.8576   17.4463   30.4717 C   0  0  0  0  0  0  0  0  0  0  0  0
  -17.8118   12.8602   26.4507 H   0  0  0  0  0  0  0  0  0  0  0  0
  -17.8608   13.9642   27.8641 H   0  0  0  0  0  0  0  0  0  0  0  0
  -20.0949   14.8344   28.2288 H   0  0  0  0  0  0  0  0  0  0  0  0
  -19.6480   16.1549   27.1064 H   0  0  0  0  0  0  0  0  0  0  0  0
  -22.0129   14.1360   27.0340 H   0  0  0  0  0  0  0  0  0  0  0  0
  -21.7707   15.3411   25.7364 H   0  0  0  0  0  0  0  0  0  0  0  0
  -20.9451   18.0699   25.9237 H   0  0  0  0  0  0  0  0  0  0  0  0
  -22.2927   19.2198   25.7778 H   0  0  0  0  0  0  0  0  0  0  0  0
  -22.5189   17.6103   25.2178 H   0  0  0  0  0  0  0  0  0  0  0  0
  -22.7289   13.8833   29.2430 H   0  0  0  0  0  0  0  0  0  0  0  0
  -23.9362   14.1894   31.5394 H   0  0  0  0  0  0  0  0  0  0  0  0
  -24.6199   16.4054   32.2647 H   0  0  0  0  0  0  0  0  0  0  0  0
  -24.0121   18.4617   30.8196 H   0  0  0  0  0  0  0  0  0  0  0  0
  1 16  1  0  0  0  0
  1 17  1  0  0  0  0
  1  2  1  0  0  0  0
  2  4  1  0  0  0  0
  2  3  2  0  0  0  0
  4  6  1  0  0  0  0
  4 18  1  0  0  0  0
  4 19  1  0  0  0  0
  5  8  1  0  0  0  0
  5 11  1  0  0  0  0
  5  6  1  0  0  0  0
  6 20  1  0  0  0  0
  6 21  1  0  0  0  0
  7 10  1  0  0  0  0
  7  8  1  0  0  0  0
  8  9  1  0  0  0  0
  9 22  1  0  0  0  0
  9 23  1  0  0  0  0
  9 24  1  0  0  0  0
 10 11  1  0  0  0  0
 10 15  1  0  0  0  0
 11 12  1  0  0  0  0
 12 13  1  0  0  0  0
 12 25  1  0  0  0  0
 13 14  1  0  0  0  0
 13 26  1  0  0  0  0
 14 15  1  0  0  0  0
 14 27  1  0  0  0  0
 15 28  1  0  0  0  0
M  END
>  <pdb_header>
CRYST1   99.105   99.107   99.102  90.00  90.00  90.00 P 1           1 


$$$$
