top5_centroid
  PyMOL2.3          3D                             0

 19 19  0  0  0  0  0  0  0  0999 V2000
  -18.3555   19.2227   27.0385 N   0  0  0  0  0  0  0  0  0  0  0  0
  -17.5072   18.1542   26.8850 C   0  0  0  0  0  0  0  0  0  0  0  0
  -17.9497   17.0330   27.1106 O   0  0  0  0  0  0  0  0  0  0  0  0
  -19.6952   18.9699   27.6298 C   0  0  0  0  0  0  0  0  0  0  0  0
  -14.0047   18.0595   26.1253 N   0  0  0  0  0  0  0  0  0  0  0  0
  -18.2741   20.5158   26.3119 C   0  0  0  0  0  0  0  0  0  0  0  0
  -14.0617   19.3901   26.3461 N   0  0  0  0  0  0  0  0  0  0  0  0
  -16.0596   18.3943   26.5866 C   0  0  0  0  0  0  0  0  0  0  0  0
  -15.1950   17.4166   26.3951 C   0  0  0  0  0  0  0  0  0  0  0  0
  -15.3038   19.6198   26.5466 C   0  0  0  0  0  0  0  0  0  0  0  0
  -19.6384   18.2152   28.4282 H   0  0  0  0  0  0  0  0  0  0  0  0
  -20.3594   18.6125   26.8221 H   0  0  0  0  0  0  0  0  0  0  0  0
  -20.0135   19.9275   28.0625 H   0  0  0  0  0  0  0  0  0  0  0  0
  -17.8525   21.3096   26.9403 H   0  0  0  0  0  0  0  0  0  0  0  0
  -19.1899   20.9048   25.8251 H   0  0  0  0  0  0  0  0  0  0  0  0
  -17.5247   20.4024   25.5176 H   0  0  0  0  0  0  0  0  0  0  0  0
  -15.2355   16.3767   26.6742 H   0  0  0  0  0  0  0  0  0  0  0  0
  -13.1763   17.5514   25.8760 H   0  0  0  0  0  0  0  0  0  0  0  0
  -15.6594   20.6352   26.6010 H   0  0  0  0  0  0  0  0  0  0  0  0
  1  2  1  0  0  0  0
  1  6  1  0  0  0  0
  2  3  2  0  0  0  0
  2  8  1  0  0  0  0
  1  4  1  0  0  0  0
  4 11  1  0  0  0  0
  4 12  1  0  0  0  0
  4 13  1  0  0  0  0
  5  7  1  0  0  0  0
  5 18  1  0  0  0  0
  6 14  1  0  0  0  0
  6 15  1  0  0  0  0
  6 16  1  0  0  0  0
  7 10  1  0  0  0  0
  8  9  1  0  0  0  0
  8 10  1  0  0  0  0
  5  9  1  0  0  0  0
  9 17  1  0  0  0  0
 10 19  1  0  0  0  0
M  END
>  <pdb_header>
CRYST1   99.370   99.372   99.366  90.00  90.00  90.00 P 1           1 


$$$$
