top5_centroid
  PyMOL2.3          3D                             0

 29 30  0  0  0  0  0  0  0  0999 V2000
  -19.6325   16.9972   27.6849 N   0  0  0  0  0  0  0  0  0  0  0  0
  -16.5764   19.2256   29.5887 C   0  0  0  0  0  0  0  0  0  0  0  0
  -15.1341   17.8308   28.1151 O   0  0  0  0  0  0  0  0  0  0  0  0
  -16.3761   18.6422   28.1279 C   0  0  0  0  0  0  0  0  0  0  0  0
  -18.7301   16.0515   27.2359 N   0  0  0  0  0  0  0  0  0  0  0  0
  -17.5340   17.7145   27.8490 C   0  0  0  0  0  0  0  0  0  0  0  0
  -18.9091   18.0586   28.1046 C   0  0  0  0  0  0  0  0  0  0  0  0
  -19.2691   14.7820   26.6915 C   0  0  0  0  0  0  0  0  0  0  0  0
  -18.6109   14.4120   25.2957 C   0  0  0  0  0  0  0  0  0  0  0  0
  -18.8164   12.9238   25.0795 C   0  0  0  0  0  0  0  0  0  0  0  0
  -19.3853   12.3634   26.4728 C   0  0  0  0  0  0  0  0  0  0  0  0
  -19.1896   13.5590   27.4804 C   0  0  0  0  0  0  0  0  0  0  0  0
  -17.4479   16.4519   27.3453 C   0  0  0  0  0  0  0  0  0  0  0  0
  -17.4800   19.8380   29.5957 H   0  0  0  0  0  0  0  0  0  0  0  0
  -15.6872   19.7485   29.9542 H   0  0  0  0  0  0  0  0  0  0  0  0
  -16.6680   18.3583   30.2670 H   0  0  0  0  0  0  0  0  0  0  0  0
  -14.7807   18.0918   27.2444 H   0  0  0  0  0  0  0  0  0  0  0  0
  -19.3372   18.9924   28.4355 H   0  0  0  0  0  0  0  0  0  0  0  0
  -20.3452   14.9020   26.5288 H   0  0  0  0  0  0  0  0  0  0  0  0
  -18.9423   15.0767   24.4874 H   0  0  0  0  0  0  0  0  0  0  0  0
  -17.5268   14.6116   25.2813 H   0  0  0  0  0  0  0  0  0  0  0  0
  -19.5007   12.8141   24.2262 H   0  0  0  0  0  0  0  0  0  0  0  0
  -17.8625   12.4620   24.8023 H   0  0  0  0  0  0  0  0  0  0  0  0
  -18.8521   11.4558   26.7576 H   0  0  0  0  0  0  0  0  0  0  0  0
  -20.4403   12.1640   26.2320 H   0  0  0  0  0  0  0  0  0  0  0  0
  -18.3175   13.5718   28.1513 H   0  0  0  0  0  0  0  0  0  0  0  0
  -20.0462   13.5560   28.1768 H   0  0  0  0  0  0  0  0  0  0  0  0
  -16.5992   15.8529   27.0385 H   0  0  0  0  0  0  0  0  0  0  0  0
  -16.3008   19.4762   27.4139 H   0  0  0  0  0  0  0  0  0  0  0  0
  1  5  1  0  0  0  0
  2  4  1  0  0  0  0
  2 14  1  0  0  0  0
  2 15  1  0  0  0  0
  2 16  1  0  0  0  0
  3 17  1  0  0  0  0
  3  4  1  0  0  0  0
  4  6  1  0  0  0  0
  4 29  1  0  0  0  0
  5  8  1  0  0  0  0
  6  7  1  0  0  0  0
  6 13  1  0  0  0  0
  1  7  1  0  0  0  0
  7 18  1  0  0  0  0
  8  9  1  0  0  0  0
  8 12  1  0  0  0  0
  8 19  1  0  0  0  0
  9 10  1  0  0  0  0
  9 20  1  0  0  0  0
  9 21  1  0  0  0  0
 10 11  1  0  0  0  0
 10 22  1  0  0  0  0
 10 23  1  0  0  0  0
 11 12  1  0  0  0  0
 11 24  1  0  0  0  0
 11 25  1  0  0  0  0
 12 26  1  0  0  0  0
 12 27  1  0  0  0  0
  5 13  1  0  0  0  0
 13 28  1  0  0  0  0
M  END
>  <pdb_header>
CRYST1   99.151   99.152   99.147  90.00  90.00  90.00 P 1           1 


$$$$
