top2_centroid
  PyMOL2.3          3D                             0

 30 31  0  0  0  0  0  0  0  0999 V2000
  -18.3774   13.6487   26.6487 N   0  0  0  0  0  0  0  0  0  0  0  0
  -17.6946   10.6723   23.6025 C   0  0  0  0  0  0  0  0  0  0  0  0
  -22.0386   16.2799   27.6828 O   0  0  0  0  0  0  0  0  0  0  0  0
  -16.9139   11.8177   23.7045 C   0  0  0  0  0  0  0  0  0  0  0  0
  -20.1629   15.0478   28.3257 N   0  0  0  0  0  0  0  0  0  0  0  0
  -17.1735   12.7993   24.6195 C   0  0  0  0  0  0  0  0  0  0  0  0
  -22.3077   14.7883   29.2898 N   0  0  0  0  0  0  0  0  0  0  0  0
  -18.1383   12.6203   25.6447 C   0  0  0  0  0  0  0  0  0  0  0  0
  -18.8366   14.9447   26.2782 C   0  0  0  0  0  0  0  0  0  0  0  0
  -19.2638   15.7765   27.4575 C   0  0  0  0  0  0  0  0  0  0  0  0
  -21.5374   15.5037   28.4311 C   0  0  0  0  0  0  0  0  0  0  0  0
  -19.8926   13.6243   28.5888 C   0  0  0  0  0  0  0  0  0  0  0  0
  -18.4112   13.2362   28.0815 C   0  0  0  0  0  0  0  0  0  0  0  0
  -18.8956   11.3968   25.6052 C   0  0  0  0  0  0  0  0  0  0  0  0
  -18.6496   10.4237   24.5543 C   0  0  0  0  0  0  0  0  0  0  0  0
  -17.4050    9.7229   22.7153 F   0  0  0  0  0  0  0  0  0  0  0  0
  -16.0792   12.0228   23.0449 H   0  0  0  0  0  0  0  0  0  0  0  0
  -16.4425   13.5976   24.6126 H   0  0  0  0  0  0  0  0  0  0  0  0
  -18.0914   15.3930   25.6166 H   0  0  0  0  0  0  0  0  0  0  0  0
  -19.7529   14.8822   25.6692 H   0  0  0  0  0  0  0  0  0  0  0  0
  -19.6575   16.7657   27.2140 H   0  0  0  0  0  0  0  0  0  0  0  0
  -18.4113   15.9782   28.1208 H   0  0  0  0  0  0  0  0  0  0  0  0
  -23.2493   15.1495   29.3949 H   0  0  0  0  0  0  0  0  0  0  0  0
  -21.9328   14.0515   29.8696 H   0  0  0  0  0  0  0  0  0  0  0  0
  -20.0222   13.3506   29.6342 H   0  0  0  0  0  0  0  0  0  0  0  0
  -20.6739   13.0145   28.1170 H   0  0  0  0  0  0  0  0  0  0  0  0
  -18.2966   12.1556   28.2428 H   0  0  0  0  0  0  0  0  0  0  0  0
  -17.6002   13.6929   28.6633 H   0  0  0  0  0  0  0  0  0  0  0  0
  -19.6917   11.3098   26.3318 H   0  0  0  0  0  0  0  0  0  0  0  0
  -19.1949    9.4870   24.5896 H   0  0  0  0  0  0  0  0  0  0  0  0
  1  9  1  0  0  0  0
  1 13  1  0  0  0  0
  2 15  1  0  0  0  0
  2 16  1  0  0  0  0
  2  4  1  0  0  0  0
  4 17  1  0  0  0  0
  5 11  1  0  0  0  0
  4  6  1  0  0  0  0
  6  8  1  0  0  0  0
  6 18  1  0  0  0  0
  7 23  1  0  0  0  0
  7 24  1  0  0  0  0
  1  8  1  0  0  0  0
  9 10  1  0  0  0  0
  9 19  1  0  0  0  0
  9 20  1  0  0  0  0
  5 10  1  0  0  0  0
 10 21  1  0  0  0  0
 10 22  1  0  0  0  0
  3 11  1  0  0  0  0
  7 11  1  0  0  0  0
  5 12  1  0  0  0  0
 12 25  1  0  0  0  0
 12 26  1  0  0  0  0
 12 13  1  0  0  0  0
 13 27  1  0  0  0  0
 13 28  1  0  0  0  0
  8 14  1  0  0  0  0
 14 29  1  0  0  0  0
 14 15  1  0  0  0  0
 15 30  1  0  0  0  0
M  END
>  <pdb_header>
CRYST1   99.149   99.151   99.145  90.00  90.00  90.00 P 1           1 


$$$$
