top2_centroid
  PyMOL2.3          3D                             0

 24 25  0  0  0  0  0  0  0  0999 V2000
  -20.9466   15.8597   26.5354 N   0  0  0  0  0  0  0  0  0  0  0  0
  -19.2929   14.3058   25.7870 C   0  0  0  0  0  0  0  0  0  0  0  0
  -19.8776   15.0329   26.8509 C   0  0  0  0  0  0  0  0  0  0  0  0
  -24.1849   17.3613   27.6484 N   0  0  0  0  0  0  0  0  0  0  0  0
  -21.8671   16.3075   27.5869 C   0  0  0  0  0  0  0  0  0  0  0  0
  -25.1180   17.9055   26.8172 N   0  0  0  0  0  0  0  0  0  0  0  0
  -23.0367   17.0231   26.9956 C   0  0  0  0  0  0  0  0  0  0  0  0
  -24.5069   17.9427   25.6585 C   0  0  0  0  0  0  0  0  0  0  0  0
  -23.1991   17.3306   25.7314 C   0  0  0  0  0  0  0  0  0  0  0  0
  -19.4129   14.9656   28.1599 C   0  0  0  0  0  0  0  0  0  0  0  0
  -18.2132   14.1907   28.4303 C   0  0  0  0  0  0  0  0  0  0  0  0
  -17.6055   13.4672   27.3744 C   0  0  0  0  0  0  0  0  0  0  0  0
  -18.1446   13.5040   26.1009 C   0  0  0  0  0  0  0  0  0  0  0  0
  -19.7430   14.4180   24.5428 F   0  0  0  0  0  0  0  0  0  0  0  0
  -21.4745   15.6764   25.6905 H   0  0  0  0  0  0  0  0  0  0  0  0
  -22.2643   15.4655   28.1596 H   0  0  0  0  0  0  0  0  0  0  0  0
  -21.3946   17.1324   28.1391 H   0  0  0  0  0  0  0  0  0  0  0  0
  -24.4250   17.1073   28.5955 H   0  0  0  0  0  0  0  0  0  0  0  0
  -24.9800   18.2619   24.7426 H   0  0  0  0  0  0  0  0  0  0  0  0
  -22.4946   17.2420   24.9177 H   0  0  0  0  0  0  0  0  0  0  0  0
  -19.7252   15.6533   28.9491 H   0  0  0  0  0  0  0  0  0  0  0  0
  -17.8060   14.2391   29.4361 H   0  0  0  0  0  0  0  0  0  0  0  0
  -16.6127   13.0665   27.5688 H   0  0  0  0  0  0  0  0  0  0  0  0
  -17.6763   12.9615   25.2870 H   0  0  0  0  0  0  0  0  0  0  0  0
  1  3  1  0  0  0  0
  1 15  1  0  0  0  0
  2 13  1  0  0  0  0
  2 14  1  0  0  0  0
  2  3  1  0  0  0  0
  3 10  1  0  0  0  0
  4  7  1  0  0  0  0
  4 18  1  0  0  0  0
  1  5  1  0  0  0  0
  5 16  1  0  0  0  0
  5 17  1  0  0  0  0
  4  6  1  0  0  0  0
  5  7  1  0  0  0  0
  6  8  1  0  0  0  0
  8  9  1  0  0  0  0
  8 19  1  0  0  0  0
  7  9  1  0  0  0  0
  9 20  1  0  0  0  0
 10 21  1  0  0  0  0
 10 11  1  0  0  0  0
 11 22  1  0  0  0  0
 11 12  1  0  0  0  0
 12 23  1  0  0  0  0
 12 13  1  0  0  0  0
 13 24  1  0  0  0  0
M  END
>  <pdb_header>
CRYST1   99.156   99.158   99.152  90.00  90.00  90.00 P 1           1 


$$$$
