top4_centroid
  PyMOL2.3          3D                             0

 32 33  0  0  0  0  0  0  0  0999 V2000
  -22.4437   12.2778   27.1141 N   0  0  0  0  0  0  0  0  0  0  0  0
  -22.4793   13.0070   28.2948 C   0  0  0  0  0  0  0  0  0  0  0  0
  -21.6363   13.8230   28.6243 O   0  0  0  0  0  0  0  0  0  0  0  0
  -21.5048   12.3789   26.1569 C   0  0  0  0  0  0  0  0  0  0  0  0
  -19.7839   12.8505   24.8800 N   0  0  0  0  0  0  0  0  0  0  0  0
  -20.3677   13.1664   26.0974 C   0  0  0  0  0  0  0  0  0  0  0  0
  -20.5294   11.9288   24.1970 N   0  0  0  0  0  0  0  0  0  0  0  0
  -18.4774   13.3092   24.4118 C   0  0  0  0  0  0  0  0  0  0  0  0
  -17.4188   13.4873   25.4881 C   0  0  0  0  0  0  0  0  0  0  0  0
  -21.4926   11.5625   25.0398 C   0  0  0  0  0  0  0  0  0  0  0  0
  -23.7595   12.6385   29.1025 C   0  0  0  0  0  0  0  0  0  0  0  0
  -23.4234   11.5682   30.1832 C   0  0  0  0  0  0  0  0  0  0  0  0
  -24.4743   11.6680   31.2883 C   0  0  0  0  0  0  0  0  0  0  0  0
  -24.8364   13.2022   31.2379 C   0  0  0  0  0  0  0  0  0  0  0  0
  -24.3558   13.8176   29.8862 C   0  0  0  0  0  0  0  0  0  0  0  0
  -23.2210   11.6233   27.0185 H   0  0  0  0  0  0  0  0  0  0  0  0
  -19.9776   14.0024   26.6758 H   0  0  0  0  0  0  0  0  0  0  0  0
  -18.0340   12.5624   23.7321 H   0  0  0  0  0  0  0  0  0  0  0  0
  -18.5843   14.2724   23.8986 H   0  0  0  0  0  0  0  0  0  0  0  0
  -17.3115   12.6134   26.1467 H   0  0  0  0  0  0  0  0  0  0  0  0
  -17.5514   14.3939   26.1077 H   0  0  0  0  0  0  0  0  0  0  0  0
  -16.4257   13.4765   25.0434 H   0  0  0  0  0  0  0  0  0  0  0  0
  -22.2845   10.9768   24.6005 H   0  0  0  0  0  0  0  0  0  0  0  0
  -24.4933   12.2429   28.3862 H   0  0  0  0  0  0  0  0  0  0  0  0
  -23.4033   10.5815   29.7111 H   0  0  0  0  0  0  0  0  0  0  0  0
  -22.4833   11.8148   30.6928 H   0  0  0  0  0  0  0  0  0  0  0  0
  -25.3959   11.1420   31.0433 H   0  0  0  0  0  0  0  0  0  0  0  0
  -24.0730   11.3969   32.2801 H   0  0  0  0  0  0  0  0  0  0  0  0
  -24.3665   13.8138   32.0292 H   0  0  0  0  0  0  0  0  0  0  0  0
  -25.9063   13.4332   31.3267 H   0  0  0  0  0  0  0  0  0  0  0  0
  -23.5552   14.5314   30.1102 H   0  0  0  0  0  0  0  0  0  0  0  0
  -25.1905   14.2249   29.3020 H   0  0  0  0  0  0  0  0  0  0  0  0
  1  2  1  0  0  0  0
  1 16  1  0  0  0  0
  2  3  2  0  0  0  0
  2 11  1  0  0  0  0
  1  4  1  0  0  0  0
  5  6  1  0  0  0  0
  5  7  1  0  0  0  0
  4  6  1  0  0  0  0
  6 17  1  0  0  0  0
  7 10  1  0  0  0  0
  5  8  1  0  0  0  0
  8 18  1  0  0  0  0
  8 19  1  0  0  0  0
  8  9  1  0  0  0  0
  9 20  1  0  0  0  0
  9 21  1  0  0  0  0
  9 22  1  0  0  0  0
  4 10  1  0  0  0  0
 10 23  1  0  0  0  0
 11 12  1  0  0  0  0
 11 15  1  0  0  0  0
 11 24  1  0  0  0  0
 12 13  1  0  0  0  0
 12 25  1  0  0  0  0
 12 26  1  0  0  0  0
 13 14  1  0  0  0  0
 13 27  1  0  0  0  0
 13 28  1  0  0  0  0
 14 15  1  0  0  0  0
 14 29  1  0  0  0  0
 14 30  1  0  0  0  0
 15 31  1  0  0  0  0
 15 32  1  0  0  0  0
M  END
>  <pdb_header>
CRYST1   99.108   99.110   99.104  90.00  90.00  90.00 P 1           1 


$$$$
