top4_centroid
  PyMOL2.3          3D                             0

 24 25  0  0  0  0  0  0  0  0999 V2000
  -16.6551   16.1499   25.9186 N   0  0  0  0  0  0  0  0  0  0  0  0
  -17.9338   14.1353   25.4230 C   0  0  0  0  0  0  0  0  0  0  0  0
  -17.4981   15.1018   26.3201 C   0  0  0  0  0  0  0  0  0  0  0  0
  -14.8612   18.8267   25.1052 N   0  0  0  0  0  0  0  0  0  0  0  0
  -16.2906   17.2800   26.7363 C   0  0  0  0  0  0  0  0  0  0  0  0
  -14.7873   20.1765   24.7299 N   0  0  0  0  0  0  0  0  0  0  0  0
  -15.8298   18.6063   26.1062 C   0  0  0  0  0  0  0  0  0  0  0  0
  -15.8554   20.6679   25.3291 C   0  0  0  0  0  0  0  0  0  0  0  0
  -16.4896   19.7309   26.2013 C   0  0  0  0  0  0  0  0  0  0  0  0
  -17.8069   14.8597   27.7417 C   0  0  0  0  0  0  0  0  0  0  0  0
  -18.5794   13.7372   28.1215 C   0  0  0  0  0  0  0  0  0  0  0  0
  -18.9546   12.7805   27.1965 C   0  0  0  0  0  0  0  0  0  0  0  0
  -18.6749   12.9939   25.8499 C   0  0  0  0  0  0  0  0  0  0  0  0
  -17.7082   14.3960   24.1496 F   0  0  0  0  0  0  0  0  0  0  0  0
  -16.5423   16.2112   24.9183 H   0  0  0  0  0  0  0  0  0  0  0  0
  -17.1628   17.3984   27.3992 H   0  0  0  0  0  0  0  0  0  0  0  0
  -15.4755   16.9335   27.3870 H   0  0  0  0  0  0  0  0  0  0  0  0
  -14.0933   18.2206   24.8681 H   0  0  0  0  0  0  0  0  0  0  0  0
  -16.0302   21.7348   25.2350 H   0  0  0  0  0  0  0  0  0  0  0  0
  -17.3604   19.8820   26.8308 H   0  0  0  0  0  0  0  0  0  0  0  0
  -17.5028   15.5546   28.5118 H   0  0  0  0  0  0  0  0  0  0  0  0
  -18.7839   13.5883   29.1826 H   0  0  0  0  0  0  0  0  0  0  0  0
  -19.4977   11.9275   27.5817 H   0  0  0  0  0  0  0  0  0  0  0  0
  -19.0264   12.2863   25.1028 H   0  0  0  0  0  0  0  0  0  0  0  0
  1  3  1  0  0  0  0
  1 15  1  0  0  0  0
  2 13  1  0  0  0  0
  2 14  1  0  0  0  0
  2  3  1  0  0  0  0
  3 10  1  0  0  0  0
  4  7  1  0  0  0  0
  4 18  1  0  0  0  0
  1  5  1  0  0  0  0
  5 16  1  0  0  0  0
  5 17  1  0  0  0  0
  4  6  1  0  0  0  0
  5  7  1  0  0  0  0
  6  8  1  0  0  0  0
  8  9  1  0  0  0  0
  8 19  1  0  0  0  0
  7  9  1  0  0  0  0
  9 20  1  0  0  0  0
 10 21  1  0  0  0  0
 10 11  1  0  0  0  0
 11 22  1  0  0  0  0
 11 12  1  0  0  0  0
 12 23  1  0  0  0  0
 12 13  1  0  0  0  0
 13 24  1  0  0  0  0
M  END
>  <pdb_header>
CRYST1   99.156   99.158   99.152  90.00  90.00  90.00 P 1           1 


$$$$
