top2_centroid
  PyMOL2.3          3D                             0

 32 33  0  0  0  0  0  0  0  0999 V2000
  -20.2237   10.8949   32.8920 N   0  0  0  0  0  0  0  0  0  0  0  0
  -21.3421   10.2222   33.2581 C   0  0  0  0  0  0  0  0  0  0  0  0
  -22.3853   10.0949   32.6477 O   0  0  0  0  0  0  0  0  0  0  0  0
  -22.3927    8.9864   35.0188 C   0  0  0  0  0  0  0  0  0  0  0  0
  -18.4771   11.7974   24.8445 N   0  0  0  0  0  0  0  0  0  0  0  0
  -21.2293    9.7799   34.5938 O   0  0  0  0  0  0  0  0  0  0  0  0
  -20.0818   11.7137   31.7033 C   0  0  0  0  0  0  0  0  0  0  0  0
  -21.0877   12.6428   31.3894 C   0  0  0  0  0  0  0  0  0  0  0  0
  -20.8721   13.5084   30.2850 C   0  0  0  0  0  0  0  0  0  0  0  0
  -19.7120   13.4274   29.5061 C   0  0  0  0  0  0  0  0  0  0  0  0
  -19.5565   14.2741   28.2721 C   0  0  0  0  0  0  0  0  0  0  0  0
  -19.2586   13.4456   27.0467 C   0  0  0  0  0  0  0  0  0  0  0  0
  -19.7814   12.1846   26.8742 C   0  0  0  0  0  0  0  0  0  0  0  0
  -19.3587   11.3535   25.7520 C   0  0  0  0  0  0  0  0  0  0  0  0
  -17.9302   13.0049   25.0208 C   0  0  0  0  0  0  0  0  0  0  0  0
  -18.2900   13.8275   26.1229 C   0  0  0  0  0  0  0  0  0  0  0  0
  -18.7851   12.4359   29.8414 C   0  0  0  0  0  0  0  0  0  0  0  0
  -18.9799   11.5485   30.8912 C   0  0  0  0  0  0  0  0  0  0  0  0
  -23.3279    9.5490   34.9939 H   0  0  0  0  0  0  0  0  0  0  0  0
  -22.2898    8.7103   36.0734 H   0  0  0  0  0  0  0  0  0  0  0  0
  -22.5354    8.0640   34.4243 H   0  0  0  0  0  0  0  0  0  0  0  0
  -19.4130   10.8719   33.5003 H   0  0  0  0  0  0  0  0  0  0  0  0
  -21.9348   12.5831   32.0734 H   0  0  0  0  0  0  0  0  0  0  0  0
  -21.6734   14.1561   29.9304 H   0  0  0  0  0  0  0  0  0  0  0  0
  -18.8631   15.0779   28.5356 H   0  0  0  0  0  0  0  0  0  0  0  0
  -20.4743   14.8454   28.0884 H   0  0  0  0  0  0  0  0  0  0  0  0
  -20.4988   11.8680   27.6271 H   0  0  0  0  0  0  0  0  0  0  0  0
  -19.8250   10.3790   25.5717 H   0  0  0  0  0  0  0  0  0  0  0  0
  -17.2449   13.3772   24.2592 H   0  0  0  0  0  0  0  0  0  0  0  0
  -17.8280   14.7867   26.3198 H   0  0  0  0  0  0  0  0  0  0  0  0
  -17.9152   12.3605   29.1871 H   0  0  0  0  0  0  0  0  0  0  0  0
  -18.2150   10.8091   31.1294 H   0  0  0  0  0  0  0  0  0  0  0  0
  1  7  1  0  0  0  0
  1 22  1  0  0  0  0
  1  2  1  0  0  0  0
  2  3  2  0  0  0  0
  4  6  1  0  0  0  0
  4 19  1  0  0  0  0
  4 20  1  0  0  0  0
  4 21  1  0  0  0  0
  5 15  1  0  0  0  0
  2  6  1  0  0  0  0
  7  8  1  0  0  0  0
  7 18  1  0  0  0  0
  8  9  1  0  0  0  0
  8 23  1  0  0  0  0
  9 10  1  0  0  0  0
  9 24  1  0  0  0  0
 10 11  1  0  0  0  0
 11 12  1  0  0  0  0
 11 25  1  0  0  0  0
 11 26  1  0  0  0  0
 12 13  1  0  0  0  0
 12 16  1  0  0  0  0
 13 14  1  0  0  0  0
 13 27  1  0  0  0  0
  5 14  1  0  0  0  0
 14 28  1  0  0  0  0
 15 16  1  0  0  0  0
 15 29  1  0  0  0  0
 16 30  1  0  0  0  0
 10 17  1  0  0  0  0
 17 31  1  0  0  0  0
 17 18  1  0  0  0  0
 18 32  1  0  0  0  0
M  END
>  <pdb_header>
CRYST1   99.104   99.106   99.100  90.00  90.00  90.00 P 1           1 


$$$$
