top2_centroid
  PyMOL2.3          3D                             0

 35 37  0  0  0  0  0  0  0  0999 V2000
  -18.6855   13.4823   26.6315 N   0  0  0  0  0  0  0  0  0  0  0  0
  -17.5867   11.0815   23.4251 C   0  0  0  0  0  0  0  0  0  0  0  0
  -22.3058   16.4543   28.6016 O   0  0  0  0  0  0  0  0  0  0  0  0
  -17.0202   12.3479   23.5913 C   0  0  0  0  0  0  0  0  0  0  0  0
  -20.8401   14.7566   28.1710 N   0  0  0  0  0  0  0  0  0  0  0  0
  -17.3710   13.1271   24.6947 C   0  0  0  0  0  0  0  0  0  0  0  0
  -18.3204   12.6375   25.6289 C   0  0  0  0  0  0  0  0  0  0  0  0
  -18.9941   13.0497   27.9812 C   0  0  0  0  0  0  0  0  0  0  0  0
  -20.4691   13.3105   28.3297 C   0  0  0  0  0  0  0  0  0  0  0  0
  -22.0757   15.2402   28.6758 C   0  0  0  0  0  0  0  0  0  0  0  0
  -22.9998   14.2735   29.4185 C   0  0  0  0  0  0  0  0  0  0  0  0
  -23.7127   13.0894   28.7634 C   0  0  0  0  0  0  0  0  0  0  0  0
  -24.5066   14.3796   29.1568 C   0  0  0  0  0  0  0  0  0  0  0  0
  -19.9032   15.6090   27.4359 C   0  0  0  0  0  0  0  0  0  0  0  0
  -19.2037   14.8618   26.3345 C   0  0  0  0  0  0  0  0  0  0  0  0
  -18.8414   11.3693   25.3984 C   0  0  0  0  0  0  0  0  0  0  0  0
  -18.4954   10.5841   24.3411 C   0  0  0  0  0  0  0  0  0  0  0  0
  -17.2498   10.2934   22.3718 F   0  0  0  0  0  0  0  0  0  0  0  0
  -16.2822   12.7041   22.8739 H   0  0  0  0  0  0  0  0  0  0  0  0
  -16.8931   14.0935   24.7646 H   0  0  0  0  0  0  0  0  0  0  0  0
  -18.7236   12.0115   28.1986 H   0  0  0  0  0  0  0  0  0  0  0  0
  -18.3618   13.5892   28.7000 H   0  0  0  0  0  0  0  0  0  0  0  0
  -20.6070   12.9634   29.3576 H   0  0  0  0  0  0  0  0  0  0  0  0
  -21.1046   12.6929   27.6767 H   0  0  0  0  0  0  0  0  0  0  0  0
  -22.7529   14.0087   30.4473 H   0  0  0  0  0  0  0  0  0  0  0  0
  -23.7649   13.0534   27.6766 H   0  0  0  0  0  0  0  0  0  0  0  0
  -23.8434   12.1494   29.2955 H   0  0  0  0  0  0  0  0  0  0  0  0
  -24.7927   15.1045   28.3916 H   0  0  0  0  0  0  0  0  0  0  0  0
  -25.1308   14.3107   30.0323 H   0  0  0  0  0  0  0  0  0  0  0  0
  -20.3421   16.5063   26.9680 H   0  0  0  0  0  0  0  0  0  0  0  0
  -19.1734   15.8583   28.2122 H   0  0  0  0  0  0  0  0  0  0  0  0
  -18.3943   15.4857   25.9515 H   0  0  0  0  0  0  0  0  0  0  0  0
  -20.0051   14.7209   25.5979 H   0  0  0  0  0  0  0  0  0  0  0  0
  -19.5824   11.0572   26.1260 H   0  0  0  0  0  0  0  0  0  0  0  0
  -18.7797    9.5337   24.3128 H   0  0  0  0  0  0  0  0  0  0  0  0
  1  8  1  0  0  0  0
  1 15  1  0  0  0  0
  2 17  1  0  0  0  0
  2 18  1  0  0  0  0
  2  4  1  0  0  0  0
  4 19  1  0  0  0  0
  5 10  1  0  0  0  0
  4  6  1  0  0  0  0
  6  7  1  0  0  0  0
  6 20  1  0  0  0  0
  1  7  1  0  0  0  0
  8  9  1  0  0  0  0
  8 21  1  0  0  0  0
  8 22  1  0  0  0  0
  5  9  1  0  0  0  0
  9 23  1  0  0  0  0
  9 24  1  0  0  0  0
  3 10  1  0  0  0  0
 10 11  1  0  0  0  0
 11 12  1  0  0  0  0
 11 13  1  0  0  0  0
 11 25  1  0  0  0  0
 12 13  1  0  0  0  0
 12 26  1  0  0  0  0
 12 27  1  0  0  0  0
 13 28  1  0  0  0  0
 13 29  1  0  0  0  0
  5 14  1  0  0  0  0
 14 30  1  0  0  0  0
 14 31  1  0  0  0  0
 14 15  1  0  0  0  0
 15 32  1  0  0  0  0
 15 33  1  0  0  0  0
  7 16  1  0  0  0  0
 16 34  1  0  0  0  0
 16 17  1  0  0  0  0
 17 35  1  0  0  0  0
M  END
>  <pdb_header>
CRYST1   99.192   99.194   99.188  90.00  90.00  90.00 P 1           1 


$$$$
