top4_centroid
  PyMOL2.3          3D                             0

 19 19  0  0  0  0  0  0  0  0999 V2000
  -20.4335   14.3888   27.8091 N   0  0  0  0  0  0  0  0  0  0  0  0
  -19.6705   13.3842   27.3615 C   0  0  0  0  0  0  0  0  0  0  0  0
  -19.9292   12.6918   26.4403 O   0  0  0  0  0  0  0  0  0  0  0  0
  -21.3891   15.1205   26.9804 C   0  0  0  0  0  0  0  0  0  0  0  0
  -22.6025   18.1495   28.6799 N   0  0  0  0  0  0  0  0  0  0  0  0
  -22.0094   16.2947   27.7227 C   0  0  0  0  0  0  0  0  0  0  0  0
  -23.7736   17.3961   28.6507 N   0  0  0  0  0  0  0  0  0  0  0  0
  -21.4563   17.4938   28.0488 C   0  0  0  0  0  0  0  0  0  0  0  0
  -23.4353   16.2798   28.0051 C   0  0  0  0  0  0  0  0  0  0  0  0
  -18.3819   13.1823   28.2300 C   0  0  0  0  0  0  0  0  0  0  0  0
  -20.1067   14.9061   28.6074 H   0  0  0  0  0  0  0  0  0  0  0  0
  -20.8015   15.4042   26.1025 H   0  0  0  0  0  0  0  0  0  0  0  0
  -22.1808   14.4345   26.6460 H   0  0  0  0  0  0  0  0  0  0  0  0
  -20.4404   17.8595   28.0921 H   0  0  0  0  0  0  0  0  0  0  0  0
  -22.5261   19.0937   29.0394 H   0  0  0  0  0  0  0  0  0  0  0  0
  -24.1921   15.5377   27.7943 H   0  0  0  0  0  0  0  0  0  0  0  0
  -17.7526   14.0638   28.0876 H   0  0  0  0  0  0  0  0  0  0  0  0
  -17.8068   12.3360   27.8455 H   0  0  0  0  0  0  0  0  0  0  0  0
  -18.6602   13.1216   29.2936 H   0  0  0  0  0  0  0  0  0  0  0  0
  1  4  1  0  0  0  0
  1 11  1  0  0  0  0
  1  2  1  0  0  0  0
  2 10  1  0  0  0  0
  2  3  2  0  0  0  0
  4  6  1  0  0  0  0
  4 12  1  0  0  0  0
  4 13  1  0  0  0  0
  5  7  1  0  0  0  0
  5 15  1  0  0  0  0
  6  8  1  0  0  0  0
  6  9  1  0  0  0  0
  7  9  1  0  0  0  0
  5  8  1  0  0  0  0
  8 14  1  0  0  0  0
  9 16  1  0  0  0  0
 10 17  1  0  0  0  0
 10 18  1  0  0  0  0
 10 19  1  0  0  0  0
M  END
>  <pdb_header>
CRYST1   99.262   99.264   99.258  90.00  90.00  90.00 P 1           1 


$$$$
