top1_centroid
  PyMOL2.3          3D                             0

 18 18  0  0  0  0  0  0  0  0999 V2000
  -18.1769   15.6917   27.7090 N   0  0  0  0  0  0  0  0  0  0  0  0
  -18.2532   17.0359   27.8936 C   0  0  0  0  0  0  0  0  0  0  0  0
  -19.2473   17.6521   27.7247 O   0  0  0  0  0  0  0  0  0  0  0  0
  -19.3522   14.8706   27.3561 C   0  0  0  0  0  0  0  0  0  0  0  0
  -15.8138   17.1257   28.4884 N   0  0  0  0  0  0  0  0  0  0  0  0
  -19.0246   13.3764   27.5159 C   0  0  0  0  0  0  0  0  0  0  0  0
  -14.9216   18.0143   28.9054 N   0  0  0  0  0  0  0  0  0  0  0  0
  -17.0054   17.7000   28.3108 C   0  0  0  0  0  0  0  0  0  0  0  0
  -15.6349   19.1926   29.0458 N   0  0  0  0  0  0  0  0  0  0  0  0
  -16.9801   19.0238   28.8129 C   0  0  0  0  0  0  0  0  0  0  0  0
  -17.2736   15.3079   27.9571 H   0  0  0  0  0  0  0  0  0  0  0  0
  -20.1481   15.0649   28.0877 H   0  0  0  0  0  0  0  0  0  0  0  0
  -19.6765   15.1598   26.3421 H   0  0  0  0  0  0  0  0  0  0  0  0
  -19.8887   12.8128   27.1521 H   0  0  0  0  0  0  0  0  0  0  0  0
  -18.1385   13.1391   26.9193 H   0  0  0  0  0  0  0  0  0  0  0  0
  -18.8155   13.1775   28.5691 H   0  0  0  0  0  0  0  0  0  0  0  0
  -15.0925   20.0140   29.2583 H   0  0  0  0  0  0  0  0  0  0  0  0
  -17.7311   19.7835   28.9687 H   0  0  0  0  0  0  0  0  0  0  0  0
  1  2  1  0  0  0  0
  1 11  1  0  0  0  0
  2  3  2  0  0  0  0
  2  8  1  0  0  0  0
  1  4  1  0  0  0  0
  4 12  1  0  0  0  0
  4 13  1  0  0  0  0
  5  7  1  0  0  0  0
  4  6  1  0  0  0  0
  6 14  1  0  0  0  0
  6 15  1  0  0  0  0
  6 16  1  0  0  0  0
  7  9  1  0  0  0  0
  5  8  1  0  0  0  0
  8 10  1  0  0  0  0
  9 10  1  0  0  0  0
  9 17  1  0  0  0  0
 10 18  1  0  0  0  0
M  END
>  <pdb_header>
CRYST1   99.354   99.356   99.350  90.00  90.00  90.00 P 1           1 


$$$$
