top4_centroid
  PyMOL2.3          3D                             0

 18 18  0  0  0  0  0  0  0  0999 V2000
  -19.7512   19.2152   26.9416 N   0  0  0  0  0  0  0  0  0  0  0  0
  -19.8526   15.5611   27.7184 C   0  0  0  0  0  0  0  0  0  0  0  0
  -20.7293   14.7595   27.7969 O   0  0  0  0  0  0  0  0  0  0  0  0
  -18.3252   13.7794   28.2772 C   0  0  0  0  0  0  0  0  0  0  0  0
  -21.1413   18.9953   27.1220 N   0  0  0  0  0  0  0  0  0  0  0  0
  -18.5603   15.1597   27.8465 O   0  0  0  0  0  0  0  0  0  0  0  0
  -18.3508   12.8192   27.0342 C   0  0  0  0  0  0  0  0  0  0  0  0
  -20.0603   17.0249   27.5080 C   0  0  0  0  0  0  0  0  0  0  0  0
  -19.0730   18.0629   27.2695 C   0  0  0  0  0  0  0  0  0  0  0  0
  -21.3156   17.7054   27.4587 C   0  0  0  0  0  0  0  0  0  0  0  0
  -19.1207   13.5423   29.0095 H   0  0  0  0  0  0  0  0  0  0  0  0
  -17.3325   13.7330   28.7287 H   0  0  0  0  0  0  0  0  0  0  0  0
  -19.1022   13.0714   26.2706 H   0  0  0  0  0  0  0  0  0  0  0  0
  -18.7844   11.8664   27.3653 H   0  0  0  0  0  0  0  0  0  0  0  0
  -17.4109   12.5488   26.5553 H   0  0  0  0  0  0  0  0  0  0  0  0
  -18.0059   17.9470   27.1178 H   0  0  0  0  0  0  0  0  0  0  0  0
  -19.4457   20.0533   26.4618 H   0  0  0  0  0  0  0  0  0  0  0  0
  -22.3318   17.4044   27.6938 H   0  0  0  0  0  0  0  0  0  0  0  0
  1  5  1  0  0  0  0
  1 17  1  0  0  0  0
  2  3  2  0  0  0  0
  2  8  1  0  0  0  0
  4  6  1  0  0  0  0
  4 11  1  0  0  0  0
  4 12  1  0  0  0  0
  5 10  1  0  0  0  0
  2  6  1  0  0  0  0
  4  7  1  0  0  0  0
  7 13  1  0  0  0  0
  7 14  1  0  0  0  0
  7 15  1  0  0  0  0
  8  9  1  0  0  0  0
  8 10  1  0  0  0  0
  1  9  1  0  0  0  0
  9 16  1  0  0  0  0
 10 18  1  0  0  0  0
M  END
>  <pdb_header>
CRYST1   99.445   99.447   99.441  90.00  90.00  90.00 P 1           1 


$$$$
