top4_centroid
  PyMOL2.3          3D                             0

 23 23  0  0  0  0  0  0  0  0999 V2000
  -18.3688   18.4443   27.6857 N   0  0  0  0  0  0  0  0  0  0  0  0
  -19.8473   14.9813   28.3110 C   0  0  0  0  0  0  0  0  0  0  0  0
  -17.1591   16.5853   27.7908 O   0  0  0  0  0  0  0  0  0  0  0  0
  -19.6418   16.3569   27.9661 C   0  0  0  0  0  0  0  0  0  0  0  0
  -20.8042   16.9709   27.7509 N   0  0  0  0  0  0  0  0  0  0  0  0
  -18.2814   17.0447   27.7756 C   0  0  0  0  0  0  0  0  0  0  0  0
  -22.2552   15.2624   28.5590 N   0  0  0  0  0  0  0  0  0  0  0  0
  -21.9835   16.4979   28.1536 C   0  0  0  0  0  0  0  0  0  0  0  0
  -23.1375   17.4138   28.0465 C   0  0  0  0  0  0  0  0  0  0  0  0
  -22.8430   18.8844   28.4591 C   0  0  0  0  0  0  0  0  0  0  0  0
  -23.6476   17.3431   26.6101 C   0  0  0  0  0  0  0  0  0  0  0  0
  -21.0983   14.5208   28.6611 C   0  0  0  0  0  0  0  0  0  0  0  0
  -18.4766   13.9549   28.4933 C   0  0  0  0  0  0  0  0  0  0  0  0
  -17.5434   19.0394   27.6535 H   0  0  0  0  0  0  0  0  0  0  0  0
  -19.2892   18.8395   27.4994 H   0  0  0  0  0  0  0  0  0  0  0  0
  -23.9612   17.0849   28.6950 H   0  0  0  0  0  0  0  0  0  0  0  0
  -22.4979   19.0003   29.4944 H   0  0  0  0  0  0  0  0  0  0  0  0
  -23.7205   19.5353   28.4243 H   0  0  0  0  0  0  0  0  0  0  0  0
  -22.1188   19.3673   27.7989 H   0  0  0  0  0  0  0  0  0  0  0  0
  -24.3639   18.1704   26.5523 H   0  0  0  0  0  0  0  0  0  0  0  0
  -24.2162   16.4066   26.5265 H   0  0  0  0  0  0  0  0  0  0  0  0
  -22.8482   17.5242   25.8789 H   0  0  0  0  0  0  0  0  0  0  0  0
  -21.1863   13.4959   29.0206 H   0  0  0  0  0  0  0  0  0  0  0  0
  1 14  1  0  0  0  0
  1 15  1  0  0  0  0
  2 12  1  0  0  0  0
  2 13  1  0  0  0  0
  3  6  1  0  0  0  0
  2  4  1  0  0  0  0
  4  5  1  0  0  0  0
  5  8  1  0  0  0  0
  1  6  1  0  0  0  0
  4  6  1  0  0  0  0
  7  8  1  0  0  0  0
  8  9  1  0  0  0  0
  9 10  1  0  0  0  0
  9 11  1  0  0  0  0
  9 16  1  0  0  0  0
 10 17  1  0  0  0  0
 10 18  1  0  0  0  0
 10 19  1  0  0  0  0
 11 20  1  0  0  0  0
 11 21  1  0  0  0  0
 11 22  1  0  0  0  0
  7 12  1  0  0  0  0
 12 23  1  0  0  0  0
M  END
>  <pdb_header>
CRYST1   99.248   99.250   99.244  90.00  90.00  90.00 P 1           1 


$$$$
