top1_centroid
  PyMOL2.3          3D                             0

 19 19  0  0  0  0  0  0  0  0999 V2000
  -19.1993   13.5103   26.6410 N   0  0  0  0  0  0  0  0  0  0  0  0
  -20.1480   13.7548   27.6704 C   0  0  0  0  0  0  0  0  0  0  0  0
  -21.3645   13.6443   27.4463 O   0  0  0  0  0  0  0  0  0  0  0  0
  -19.5082   13.4184   25.2726 C   0  0  0  0  0  0  0  0  0  0  0  0
  -16.9191   12.2167   23.0439 N   0  0  0  0  0  0  0  0  0  0  0  0
  -18.4048   12.6556   24.5392 C   0  0  0  0  0  0  0  0  0  0  0  0
  -17.5661   11.0062   23.2606 N   0  0  0  0  0  0  0  0  0  0  0  0
  -17.3635   13.2406   23.9092 C   0  0  0  0  0  0  0  0  0  0  0  0
  -18.5034   11.2875   24.1608 C   0  0  0  0  0  0  0  0  0  0  0  0
  -19.5889   14.1961   28.9940 C   0  0  0  0  0  0  0  0  0  0  0  0
  -18.2792   13.7953   26.9526 H   0  0  0  0  0  0  0  0  0  0  0  0
  -20.4910   12.9634   25.1333 H   0  0  0  0  0  0  0  0  0  0  0  0
  -19.6129   14.4125   24.8064 H   0  0  0  0  0  0  0  0  0  0  0  0
  -16.9711   14.2459   23.8734 H   0  0  0  0  0  0  0  0  0  0  0  0
  -16.1774   12.2480   22.3563 H   0  0  0  0  0  0  0  0  0  0  0  0
  -19.2735   10.5852   24.4384 H   0  0  0  0  0  0  0  0  0  0  0  0
  -19.1928   15.1928   28.7899 H   0  0  0  0  0  0  0  0  0  0  0  0
  -18.8002   13.4990   29.3129 H   0  0  0  0  0  0  0  0  0  0  0  0
  -20.3725   14.2589   29.7593 H   0  0  0  0  0  0  0  0  0  0  0  0
  1  4  1  0  0  0  0
  1 11  1  0  0  0  0
  1  2  1  0  0  0  0
  2 10  1  0  0  0  0
  2  3  2  0  0  0  0
  4  6  1  0  0  0  0
  4 12  1  0  0  0  0
  4 13  1  0  0  0  0
  5  7  1  0  0  0  0
  5 15  1  0  0  0  0
  6  8  1  0  0  0  0
  6  9  1  0  0  0  0
  7  9  1  0  0  0  0
  5  8  1  0  0  0  0
  8 14  1  0  0  0  0
  9 16  1  0  0  0  0
 10 17  1  0  0  0  0
 10 18  1  0  0  0  0
 10 19  1  0  0  0  0
M  END
>  <pdb_header>
CRYST1   99.262   99.264   99.258  90.00  90.00  90.00 P 1           1 


$$$$
