top2_centroid
  PyMOL2.3          3D                             0

 19 19  0  0  0  0  0  0  0  0999 V2000
  -17.7987   11.7521   23.7257 N   0  0  0  0  0  0  0  0  0  0  0  0
  -16.5285   12.1630   23.3778 C   0  0  0  0  0  0  0  0  0  0  0  0
  -15.8679   11.4010   22.6561 O   0  0  0  0  0  0  0  0  0  0  0  0
  -18.4942   10.6112   23.0749 C   0  0  0  0  0  0  0  0  0  0  0  0
  -14.5605   15.0905   23.9113 N   0  0  0  0  0  0  0  0  0  0  0  0
  -18.5708   12.1792   25.0230 C   0  0  0  0  0  0  0  0  0  0  0  0
  -15.7400   15.5633   24.5548 N   0  0  0  0  0  0  0  0  0  0  0  0
  -15.9782   13.4788   23.6188 C   0  0  0  0  0  0  0  0  0  0  0  0
  -14.7118   13.8870   23.2489 C   0  0  0  0  0  0  0  0  0  0  0  0
  -16.5604   14.5494   24.3814 C   0  0  0  0  0  0  0  0  0  0  0  0
  -18.2975   10.5210   21.9957 H   0  0  0  0  0  0  0  0  0  0  0  0
  -19.5518   10.8272   23.2283 H   0  0  0  0  0  0  0  0  0  0  0  0
  -18.3437    9.6277   23.5397 H   0  0  0  0  0  0  0  0  0  0  0  0
  -18.0598   11.9529   25.9619 H   0  0  0  0  0  0  0  0  0  0  0  0
  -19.4488   11.5215   25.1251 H   0  0  0  0  0  0  0  0  0  0  0  0
  -18.8190   13.2283   24.8614 H   0  0  0  0  0  0  0  0  0  0  0  0
  -13.8909   13.4603   22.7033 H   0  0  0  0  0  0  0  0  0  0  0  0
  -13.6766   15.5634   24.0642 H   0  0  0  0  0  0  0  0  0  0  0  0
  -17.5466   14.6423   24.8329 H   0  0  0  0  0  0  0  0  0  0  0  0
  1  2  1  0  0  0  0
  1  6  1  0  0  0  0
  2  3  2  0  0  0  0
  2  8  1  0  0  0  0
  1  4  1  0  0  0  0
  4 11  1  0  0  0  0
  4 12  1  0  0  0  0
  4 13  1  0  0  0  0
  5  7  1  0  0  0  0
  5 18  1  0  0  0  0
  6 14  1  0  0  0  0
  6 15  1  0  0  0  0
  6 16  1  0  0  0  0
  7 10  1  0  0  0  0
  8  9  1  0  0  0  0
  8 10  1  0  0  0  0
  5  9  1  0  0  0  0
  9 17  1  0  0  0  0
 10 19  1  0  0  0  0
M  END
>  <pdb_header>
CRYST1   99.244   99.246   99.240  90.00  90.00  90.00 P 1           1 


$$$$
