top5_centroid
  PyMOL2.3          3D                             0

 26 26  0  0  0  0  0  0  0  0999 V2000
  -18.1031   19.3056   28.4433 N   0  0  0  0  0  0  0  0  0  0  0  0
  -15.9572   18.5705   27.3682 C   0  0  0  0  0  0  0  0  0  0  0  0
  -20.5990   19.0807   26.7429 O   0  0  0  0  0  0  0  0  0  0  0  0
  -17.4018   18.5294   27.5619 C   0  0  0  0  0  0  0  0  0  0  0  0
  -18.1927   17.7344   26.7646 N   0  0  0  0  0  0  0  0  0  0  0  0
  -18.9023   20.4250   27.8762 C   0  0  0  0  0  0  0  0  0  0  0  0
  -20.4026   20.0078   27.8124 C   0  0  0  0  0  0  0  0  0  0  0  0
  -18.5449   20.9173   26.4699 C   0  0  0  0  0  0  0  0  0  0  0  0
  -17.9195   19.2642   29.8548 C   0  0  0  0  0  0  0  0  0  0  0  0
  -17.5199   16.9198   25.8591 C   0  0  0  0  0  0  0  0  0  0  0  0
  -16.1074   16.8092   25.7266 C   0  0  0  0  0  0  0  0  0  0  0  0
  -15.3446   17.5956   26.5832 C   0  0  0  0  0  0  0  0  0  0  0  0
  -15.2428   19.4675   28.0944 F   0  0  0  0  0  0  0  0  0  0  0  0
  -20.9349   20.9436   27.6001 H   0  0  0  0  0  0  0  0  0  0  0  0
  -20.7185   19.4984   28.7261 H   0  0  0  0  0  0  0  0  0  0  0  0
  -19.7915   18.5410   26.7723 H   0  0  0  0  0  0  0  0  0  0  0  0
  -19.2122   21.7587   26.2346 H   0  0  0  0  0  0  0  0  0  0  0  0
  -18.6449   20.1904   25.6603 H   0  0  0  0  0  0  0  0  0  0  0  0
  -17.5341   21.3490   26.4772 H   0  0  0  0  0  0  0  0  0  0  0  0
  -16.8727   19.5175   30.0973 H   0  0  0  0  0  0  0  0  0  0  0  0
  -18.1176   18.2452   30.2244 H   0  0  0  0  0  0  0  0  0  0  0  0
  -18.6563   19.8780   30.3870 H   0  0  0  0  0  0  0  0  0  0  0  0
  -18.1851   16.2580   25.3032 H   0  0  0  0  0  0  0  0  0  0  0  0
  -15.6026   16.0446   25.1435 H   0  0  0  0  0  0  0  0  0  0  0  0
  -14.2571   17.6234   26.6503 H   0  0  0  0  0  0  0  0  0  0  0  0
  -18.8101   21.2399   28.6089 H   0  0  0  0  0  0  0  0  0  0  0  0
  1  4  1  0  0  0  0
  1  9  1  0  0  0  0
  2 12  1  0  0  0  0
  2 13  1  0  0  0  0
  3  7  1  0  0  0  0
  3 16  1  0  0  0  0
  2  4  1  0  0  0  0
  4  5  1  0  0  0  0
  1  6  1  0  0  0  0
  6  8  1  0  0  0  0
  6 26  1  0  0  0  0
  6  7  1  0  0  0  0
  7 14  1  0  0  0  0
  7 15  1  0  0  0  0
  8 17  1  0  0  0  0
  8 18  1  0  0  0  0
  8 19  1  0  0  0  0
  9 20  1  0  0  0  0
  9 21  1  0  0  0  0
  9 22  1  0  0  0  0
  5 10  1  0  0  0  0
 10 23  1  0  0  0  0
 10 11  1  0  0  0  0
 11 24  1  0  0  0  0
 11 12  1  0  0  0  0
 12 25  1  0  0  0  0
M  END
>  <pdb_header>
CRYST1   99.172   99.174   99.168  90.00  90.00  90.00 P 1           1 


$$$$
