top3_centroid
  PyMOL2.3          3D                             0

 24 24  0  0  0  0  0  0  0  0999 V2000
  -17.8039   15.9893   27.2677 N   0  0  0  0  0  0  0  0  0  0  0  0
  -16.0383   14.3833   26.6536 C   0  0  0  0  0  0  0  0  0  0  0  0
  -15.4486   15.0512   25.4970 O   0  0  0  0  0  0  0  0  0  0  0  0
  -16.5922   15.3312   27.7005 C   0  0  0  0  0  0  0  0  0  0  0  0
  -18.9378   17.9962   27.4542 N   0  0  0  0  0  0  0  0  0  0  0  0
  -19.0600   15.0825   27.3128 C   0  0  0  0  0  0  0  0  0  0  0  0
  -17.7748   17.3688   27.2248 C   0  0  0  0  0  0  0  0  0  0  0  0
  -19.0377   19.3271   27.2381 C   0  0  0  0  0  0  0  0  0  0  0  0
  -17.9639   20.0412   26.6457 C   0  0  0  0  0  0  0  0  0  0  0  0
  -16.7983   19.3844   26.2551 C   0  0  0  0  0  0  0  0  0  0  0  0
  -16.6043   18.0504   26.7271 C   0  0  0  0  0  0  0  0  0  0  0  0
  -16.2750   15.3815   25.1080 H   0  0  0  0  0  0  0  0  0  0  0  0
  -16.8743   13.7522   26.3348 H   0  0  0  0  0  0  0  0  0  0  0  0
  -15.3263   13.6799   27.1060 H   0  0  0  0  0  0  0  0  0  0  0  0
  -15.8365   16.0344   28.0895 H   0  0  0  0  0  0  0  0  0  0  0  0
  -16.8728   14.7579   28.5842 H   0  0  0  0  0  0  0  0  0  0  0  0
  -19.5166   14.8458   26.3356 H   0  0  0  0  0  0  0  0  0  0  0  0
  -19.8013   15.5751   27.9474 H   0  0  0  0  0  0  0  0  0  0  0  0
  -18.7811   14.1015   27.7134 H   0  0  0  0  0  0  0  0  0  0  0  0
  -19.7996   17.5250   27.6894 H   0  0  0  0  0  0  0  0  0  0  0  0
  -19.9632   19.8152   27.5413 H   0  0  0  0  0  0  0  0  0  0  0  0
  -18.0213   21.1211   26.5504 H   0  0  0  0  0  0  0  0  0  0  0  0
  -16.0067   19.9826   25.8146 H   0  0  0  0  0  0  0  0  0  0  0  0
  -15.7224   17.5271   26.3701 H   0  0  0  0  0  0  0  0  0  0  0  0
  1  6  1  0  0  0  0
  1  7  1  0  0  0  0
  2  4  1  0  0  0  0
  2 13  1  0  0  0  0
  2 14  1  0  0  0  0
  2  3  2  0  0  0  0
  3 12  1  0  0  0  0
  1  4  1  0  0  0  0
  4 15  1  0  0  0  0
  4 16  1  0  0  0  0
  5  8  1  0  0  0  0
  5 20  1  0  0  0  0
  6 17  1  0  0  0  0
  6 18  1  0  0  0  0
  6 19  1  0  0  0  0
  5  7  1  0  0  0  0
  7 11  1  0  0  0  0
  8  9  1  0  0  0  0
  8 21  1  0  0  0  0
  9 10  1  0  0  0  0
  9 22  1  0  0  0  0
 10 11  1  0  0  0  0
 10 23  1  0  0  0  0
 11 24  1  0  0  0  0
M  END
>  <pdb_header>
CRYST1   99.175   99.177   99.171  90.00  90.00  90.00 P 1           1 


$$$$
