top4_centroid
  PyMOL2.3          3D                             0

 29 30  0  0  0  0  0  0  0  0999 V2000
  -19.4409   18.5843   26.9740 N   0  0  0  0  0  0  0  0  0  0  0  0
  -18.0929   18.8462   27.0296 C   0  0  0  0  0  0  0  0  0  0  0  0
  -17.1962   18.0591   27.4117 O   0  0  0  0  0  0  0  0  0  0  0  0
  -20.0001   17.3524   27.0764 C   0  0  0  0  0  0  0  0  0  0  0  0
  -20.2840   15.1734   27.2127 N   0  0  0  0  0  0  0  0  0  0  0  0
  -19.3420   16.1616   27.1325 C   0  0  0  0  0  0  0  0  0  0  0  0
  -21.5005   15.6918   27.2067 N   0  0  0  0  0  0  0  0  0  0  0  0
  -20.1440   13.6959   27.2591 C   0  0  0  0  0  0  0  0  0  0  0  0
  -19.2138   13.0535   26.2292 C   0  0  0  0  0  0  0  0  0  0  0  0
  -21.3995   16.9980   27.2164 C   0  0  0  0  0  0  0  0  0  0  0  0
  -18.3114   20.4164   26.7116 C   0  0  0  0  0  0  0  0  0  0  0  0
  -18.3144   20.9184   28.2413 C   0  0  0  0  0  0  0  0  0  0  0  0
  -17.3891   21.9757   27.6790 C   0  0  0  0  0  0  0  0  0  0  0  0
  -16.8139   20.9305   26.7418 C   0  0  0  0  0  0  0  0  0  0  0  0
  -20.0782   19.3311   26.7277 H   0  0  0  0  0  0  0  0  0  0  0  0
  -18.2799   15.9478   27.0815 H   0  0  0  0  0  0  0  0  0  0  0  0
  -19.7367   13.5898   28.2722 H   0  0  0  0  0  0  0  0  0  0  0  0
  -21.0903   13.1436   27.2580 H   0  0  0  0  0  0  0  0  0  0  0  0
  -19.2960   11.9628   26.1149 H   0  0  0  0  0  0  0  0  0  0  0  0
  -19.5966   13.3210   25.2339 H   0  0  0  0  0  0  0  0  0  0  0  0
  -18.1566   13.3431   26.2766 H   0  0  0  0  0  0  0  0  0  0  0  0
  -22.2341   17.6789   27.1911 H   0  0  0  0  0  0  0  0  0  0  0  0
  -18.9632   20.9151   25.9974 H   0  0  0  0  0  0  0  0  0  0  0  0
  -17.7678   20.3822   29.0216 H   0  0  0  0  0  0  0  0  0  0  0  0
  -19.2311   21.3798   28.6192 H   0  0  0  0  0  0  0  0  0  0  0  0
  -16.7036   22.3913   28.4171 H   0  0  0  0  0  0  0  0  0  0  0  0
  -17.8229   22.7852   27.0865 H   0  0  0  0  0  0  0  0  0  0  0  0
  -16.0913   20.2909   27.2572 H   0  0  0  0  0  0  0  0  0  0  0  0
  -16.4340   21.2418   25.7615 H   0  0  0  0  0  0  0  0  0  0  0  0
  1  2  1  0  0  0  0
  1 15  1  0  0  0  0
  2  3  2  0  0  0  0
  2 11  1  0  0  0  0
  1  4  1  0  0  0  0
  5  6  1  0  0  0  0
  5  7  1  0  0  0  0
  4  6  1  0  0  0  0
  6 16  1  0  0  0  0
  7 10  1  0  0  0  0
  5  8  1  0  0  0  0
  8 17  1  0  0  0  0
  8 18  1  0  0  0  0
  8  9  1  0  0  0  0
  9 19  1  0  0  0  0
  9 20  1  0  0  0  0
  9 21  1  0  0  0  0
  4 10  1  0  0  0  0
 10 22  1  0  0  0  0
 11 12  1  0  0  0  0
 11 14  1  0  0  0  0
 11 23  1  0  0  0  0
 12 13  1  0  0  0  0
 12 24  1  0  0  0  0
 12 25  1  0  0  0  0
 13 14  1  0  0  0  0
 13 26  1  0  0  0  0
 13 27  1  0  0  0  0
 14 28  1  0  0  0  0
 14 29  1  0  0  0  0
M  END
>  <pdb_header>
CRYST1   99.207   99.209   99.203  90.00  90.00  90.00 P 1           1 


$$$$
