
     RDKit          3D

 26 28  0  0  0  0  0  0  0  0999 V2000
  -17.1723   14.7050   24.5009 O   0  0  0  0  0  0  0  0  0  0  0  0
  -17.5841   14.6851   25.6565 C   0  0  0  0  0  0  0  0  0  0  0  0
  -17.0583   15.5946   26.5393 N   0  0  0  0  0  0  0  0  0  0  0  0
  -17.4763   15.6608   27.4718 H   0  0  0  0  0  0  0  0  0  0  0  0
  -15.9803   16.4754   26.2179 C   0  0  0  0  0  0  0  0  0  0  0  0
  -15.1940   15.9892   25.6441 H   0  0  0  0  0  0  0  0  0  0  0  0
  -15.5415   17.5434   27.1826 C   0  0  0  0  0  0  0  0  0  0  0  0
  -16.0846   17.6638   28.1123 H   0  0  0  0  0  0  0  0  0  0  0  0
  -14.4803   17.7491   27.2581 H   0  0  0  0  0  0  0  0  0  0  0  0
  -16.2414   17.9247   25.9119 C   0  0  0  0  0  0  0  0  0  0  0  0
  -15.6578   18.3811   25.1216 H   0  0  0  0  0  0  0  0  0  0  0  0
  -17.2601   18.2873   25.9780 H   0  0  0  0  0  0  0  0  0  0  0  0
  -18.6505   13.7671   26.1129 C   0  0  0  0  0  0  0  0  0  0  0  0
  -19.6809   14.2928   26.9154 C   0  0  0  0  0  0  0  0  0  0  0  0
  -19.6877   15.3164   27.1870 H   0  0  0  0  0  0  0  0  0  0  0  0
  -20.6888   13.4469   27.3469 C   0  0  0  0  0  0  0  0  0  0  0  0
  -21.7458   13.7952   28.1259 O   0  0  0  0  0  0  0  0  0  0  0  0
  -22.4306   12.5302   28.2379 C   0  0  0  0  0  0  0  0  0  0  0  0
  -22.4933   12.2580   29.2970 H   0  0  0  0  0  0  0  0  0  0  0  0
  -23.4467   12.6451   27.8433 H   0  0  0  0  0  0  0  0  0  0  0  0
  -21.7766   11.4599   27.5241 O   0  0  0  0  0  0  0  0  0  0  0  0
  -20.7067   12.1176   27.0038 C   0  0  0  0  0  0  0  0  0  0  0  0
  -19.7154   11.5643   26.2058 C   0  0  0  0  0  0  0  0  0  0  0  0
  -19.7501   10.5374   25.9445 H   0  0  0  0  0  0  0  0  0  0  0  0
  -18.6880   12.3956   25.7577 C   0  0  0  0  0  0  0  0  0  0  0  0
  -17.9348   11.9896   25.1320 H   0  0  0  0  0  0  0  0  0  0  0  0
  1  2  2  0
  2  3  1  0
  2 13  1  0
  3  4  1  0
  3  5  1  0
  5  6  1  0
  5  7  1  0
  5 10  1  0
  7  8  1  0
  7  9  1  0
  7 10  1  0
 10 11  1  0
 10 12  1  0
 13 14  1  0
 13 25  2  0
 14 15  1  0
 14 16  2  0
 16 17  1  0
 16 22  1  0
 17 18  1  0
 18 19  1  0
 18 20  1  0
 18 21  1  0
 21 22  1  0
 22 23  2  0
 23 24  1  0
 23 25  1  0
 25 26  1  0
M  END
$$$$
