top1_centroid
  PyMOL2.3          3D                             0

 26 26  0  0  0  0  0  0  0  0999 V2000
  -19.8844   13.3107   26.9462 N   0  0  0  0  0  0  0  0  0  0  0  0
  -21.0071   11.6287   25.5617 C   0  0  0  0  0  0  0  0  0  0  0  0
  -21.0673   15.7048   27.7000 O   0  0  0  0  0  0  0  0  0  0  0  0
  -21.0348   12.6587   26.5247 C   0  0  0  0  0  0  0  0  0  0  0  0
  -22.2136   13.1841   26.9558 N   0  0  0  0  0  0  0  0  0  0  0  0
  -19.6762   13.8776   28.2605 C   0  0  0  0  0  0  0  0  0  0  0  0
  -19.7945   15.3511   28.3440 C   0  0  0  0  0  0  0  0  0  0  0  0
  -18.3914   13.2261   28.8684 C   0  0  0  0  0  0  0  0  0  0  0  0
  -18.9049   13.7407   25.8492 C   0  0  0  0  0  0  0  0  0  0  0  0
  -23.3051   12.7202   26.3069 C   0  0  0  0  0  0  0  0  0  0  0  0
  -23.2982   11.7722   25.3209 C   0  0  0  0  0  0  0  0  0  0  0  0
  -22.1781   11.1668   24.8727 C   0  0  0  0  0  0  0  0  0  0  0  0
  -19.8941   11.0062   25.1253 F   0  0  0  0  0  0  0  0  0  0  0  0
  -18.9131   15.7525   27.8387 H   0  0  0  0  0  0  0  0  0  0  0  0
  -19.9732   15.6135   29.3908 H   0  0  0  0  0  0  0  0  0  0  0  0
  -21.3828   14.8720   27.3112 H   0  0  0  0  0  0  0  0  0  0  0  0
  -18.3403   12.1512   28.6117 H   0  0  0  0  0  0  0  0  0  0  0  0
  -18.4872   13.1534   29.9579 H   0  0  0  0  0  0  0  0  0  0  0  0
  -17.4302   13.7341   28.7317 H   0  0  0  0  0  0  0  0  0  0  0  0
  -19.3675   13.7821   24.8610 H   0  0  0  0  0  0  0  0  0  0  0  0
  -17.9601   13.1881   25.8579 H   0  0  0  0  0  0  0  0  0  0  0  0
  -18.6627   14.8027   25.9390 H   0  0  0  0  0  0  0  0  0  0  0  0
  -24.2722   13.0190   26.7119 H   0  0  0  0  0  0  0  0  0  0  0  0
  -24.2308   11.5740   24.7923 H   0  0  0  0  0  0  0  0  0  0  0  0
  -22.1701   10.4301   24.0727 H   0  0  0  0  0  0  0  0  0  0  0  0
  -20.5379   13.5319   28.8553 H   0  0  0  0  0  0  0  0  0  0  0  0
  1  4  1  0  0  0  0
  1  9  1  0  0  0  0
  2 12  1  0  0  0  0
  2 13  1  0  0  0  0
  3  7  1  0  0  0  0
  3 16  1  0  0  0  0
  2  4  1  0  0  0  0
  4  5  1  0  0  0  0
  1  6  1  0  0  0  0
  6  8  1  0  0  0  0
  6 26  1  0  0  0  0
  6  7  1  0  0  0  0
  7 14  1  0  0  0  0
  7 15  1  0  0  0  0
  8 17  1  0  0  0  0
  8 18  1  0  0  0  0
  8 19  1  0  0  0  0
  9 20  1  0  0  0  0
  9 21  1  0  0  0  0
  9 22  1  0  0  0  0
  5 10  1  0  0  0  0
 10 23  1  0  0  0  0
 10 11  1  0  0  0  0
 11 24  1  0  0  0  0
 11 12  1  0  0  0  0
 12 25  1  0  0  0  0
M  END
>  <pdb_header>
CRYST1   99.172   99.174   99.168  90.00  90.00  90.00 P 1           1 


$$$$
