top1_centroid
  PyMOL2.3          3D                             0

 23 24  0  0  0  0  0  0  0  0999 V2000
  -19.3438   13.7674   27.7588 N   0  0  0  0  0  0  0  0  0  0  0  0
  -19.0161   12.4914   28.5312 C   0  0  0  0  0  0  0  0  0  0  0  0
  -24.7142   14.2092   29.3544 O   0  0  0  0  0  0  0  0  0  0  0  0
  -20.4711   15.4077   26.9380 C   0  0  0  0  0  0  0  0  0  0  0  0
  -18.4980   14.4717   26.9802 N   0  0  0  0  0  0  0  0  0  0  0  0
  -24.3396   16.0743   30.2630 O   0  0  0  0  0  0  0  0  0  0  0  0
  -20.5926   14.4424   27.7856 C   0  0  0  0  0  0  0  0  0  0  0  0
  -19.1260   15.5319   26.5151 N   0  0  0  0  0  0  0  0  0  0  0  0
  -21.8510   14.0575   28.6175 C   0  0  0  0  0  0  0  0  0  0  0  0
  -22.6594   15.2912   28.8838 C   0  0  0  0  0  0  0  0  0  0  0  0
  -23.9708   15.1031   29.6050 C   0  0  0  0  0  0  0  0  0  0  0  0
  -22.8800   16.0539   27.4767 C   0  0  0  0  0  0  0  0  0  0  0  0
  -21.5986   16.3983   26.6145 C   0  0  0  0  0  0  0  0  0  0  0  0
  -19.3098   11.6418   27.9063 H   0  0  0  0  0  0  0  0  0  0  0  0
  -19.6302   12.5079   29.4465 H   0  0  0  0  0  0  0  0  0  0  0  0
  -17.9331   12.4940   28.7361 H   0  0  0  0  0  0  0  0  0  0  0  0
  -22.3902   13.2222   28.1426 H   0  0  0  0  0  0  0  0  0  0  0  0
  -21.5941   13.6894   29.6156 H   0  0  0  0  0  0  0  0  0  0  0  0
  -23.5661   15.6181   26.7417 H   0  0  0  0  0  0  0  0  0  0  0  0
  -23.3480   16.9915   27.7973 H   0  0  0  0  0  0  0  0  0  0  0  0
  -21.1560   17.3841   26.7840 H   0  0  0  0  0  0  0  0  0  0  0  0
  -21.8135   16.3633   25.5388 H   0  0  0  0  0  0  0  0  0  0  0  0
  -21.9961   15.8615   29.5460 H   0  0  0  0  0  0  0  0  0  0  0  0
  1  2  1  0  0  0  0
  1  5  1  0  0  0  0
  2 14  1  0  0  0  0
  2 15  1  0  0  0  0
  2 16  1  0  0  0  0
  4 13  1  0  0  0  0
  5  8  1  0  0  0  0
  1  7  1  0  0  0  0
  4  7  1  0  0  0  0
  4  8  1  0  0  0  0
  7  9  1  0  0  0  0
  9 10  1  0  0  0  0
  9 17  1  0  0  0  0
  9 18  1  0  0  0  0
 10 11  1  0  0  0  0
 10 23  1  0  0  0  0
  3 11  1  0  0  0  0
  6 11  1  0  0  0  0
 10 12  1  0  0  0  0
 12 19  1  0  0  0  0
 12 20  1  0  0  0  0
 12 13  1  0  0  0  0
 13 21  1  0  0  0  0
 13 22  1  0  0  0  0
M  END
>  <pdb_header>
CRYST1   99.171   99.173   99.167  90.00  90.00  90.00 P 1           1 


$$$$
