top5_centroid
  PyMOL2.3          3D                             0

 31 32  0  0  0  0  0  0  0  0999 V2000
  -18.5051   19.5312   27.3985 N   0  0  0  0  0  0  0  0  0  0  0  0
  -18.5768   20.7775   26.8990 C   0  0  0  0  0  0  0  0  0  0  0  0
  -19.6796   21.2649   26.7155 O   0  0  0  0  0  0  0  0  0  0  0  0
  -19.7383   18.7084   27.3430 C   0  0  0  0  0  0  0  0  0  0  0  0
  -18.4297   15.4151   28.1133 N   0  0  0  0  0  0  0  0  0  0  0  0
  -19.3938   17.3108   27.7803 C   0  0  0  0  0  0  0  0  0  0  0  0
  -19.6050   15.4048   28.8451 N   0  0  0  0  0  0  0  0  0  0  0  0
  -18.2971   16.6077   27.3719 C   0  0  0  0  0  0  0  0  0  0  0  0
  -16.5358   23.8766   26.3195 N   0  0  0  0  0  0  0  0  0  0  0  0
  -17.4747   14.3405   28.0558 C   0  0  0  0  0  0  0  0  0  0  0  0
  -17.4765   13.6278   26.6926 C   0  0  0  0  0  0  0  0  0  0  0  0
  -20.1589   16.5798   28.6138 C   0  0  0  0  0  0  0  0  0  0  0  0
  -17.3392   21.5883   26.6021 C   0  0  0  0  0  0  0  0  0  0  0  0
  -17.5208   23.0050   26.5614 C   0  0  0  0  0  0  0  0  0  0  0  0
  -15.2981   23.2917   26.1570 C   0  0  0  0  0  0  0  0  0  0  0  0
  -15.0425   21.9559   26.2994 C   0  0  0  0  0  0  0  0  0  0  0  0
  -16.0842   21.0374   26.4178 C   0  0  0  0  0  0  0  0  0  0  0  0
  -17.6169   19.0478   27.4721 H   0  0  0  0  0  0  0  0  0  0  0  0
  -20.0039   18.7956   26.2913 H   0  0  0  0  0  0  0  0  0  0  0  0
  -20.6051   19.0852   27.9123 H   0  0  0  0  0  0  0  0  0  0  0  0
  -17.4608   16.8788   26.7368 H   0  0  0  0  0  0  0  0  0  0  0  0
  -16.4461   14.6511   28.2802 H   0  0  0  0  0  0  0  0  0  0  0  0
  -17.8217   13.6100   28.8004 H   0  0  0  0  0  0  0  0  0  0  0  0
  -18.5199   13.3689   26.4395 H   0  0  0  0  0  0  0  0  0  0  0  0
  -16.8699   12.7340   26.8616 H   0  0  0  0  0  0  0  0  0  0  0  0
  -17.0019   14.1691   25.8667 H   0  0  0  0  0  0  0  0  0  0  0  0
  -21.1142   16.8356   29.0460 H   0  0  0  0  0  0  0  0  0  0  0  0
  -18.5017   23.4629   26.7297 H   0  0  0  0  0  0  0  0  0  0  0  0
  -14.4847   24.0129   26.0125 H   0  0  0  0  0  0  0  0  0  0  0  0
  -14.0191   21.6034   26.2351 H   0  0  0  0  0  0  0  0  0  0  0  0
  -15.9414   19.9747   26.5677 H   0  0  0  0  0  0  0  0  0  0  0  0
  1  2  1  0  0  0  0
  1 18  1  0  0  0  0
  2  3  2  0  0  0  0
  2 13  1  0  0  0  0
  1  4  1  0  0  0  0
  4 19  1  0  0  0  0
  4 20  1  0  0  0  0
  5  7  1  0  0  0  0
  5  8  1  0  0  0  0
  4  6  1  0  0  0  0
  7 12  1  0  0  0  0
  6  8  1  0  0  0  0
  8 21  1  0  0  0  0
  9 15  1  0  0  0  0
  5 10  1  0  0  0  0
 10 22  1  0  0  0  0
 10 23  1  0  0  0  0
 10 11  1  0  0  0  0
 11 24  1  0  0  0  0
 11 25  1  0  0  0  0
 11 26  1  0  0  0  0
  6 12  1  0  0  0  0
 12 27  1  0  0  0  0
 13 14  1  0  0  0  0
 13 17  1  0  0  0  0
  9 14  1  0  0  0  0
 14 28  1  0  0  0  0
 15 16  1  0  0  0  0
 15 29  1  0  0  0  0
 16 17  1  0  0  0  0
 16 30  1  0  0  0  0
 17 31  1  0  0  0  0
M  END
>  <pdb_header>
CRYST1   99.011   99.013   99.007  90.00  90.00  90.00 P 1           1 


$$$$
