top3_centroid
  PyMOL2.3          3D                             0

 27 28  0  0  0  0  0  0  0  0999 V2000
  -19.5124   12.5554   25.7097 N   0  0  0  0  0  0  0  0  0  0  0  0
  -14.5141   13.7627   22.4804 C   0  0  0  0  0  0  0  0  0  0  0  0
  -15.9142   14.0157   22.8533 O   0  0  0  0  0  0  0  0  0  0  0  0
  -16.6884   13.0332   23.4208 C   0  0  0  0  0  0  0  0  0  0  0  0
  -20.4544   13.4099   27.5602 O   0  0  0  0  0  0  0  0  0  0  0  0
  -17.7146   13.2826   24.3175 C   0  0  0  0  0  0  0  0  0  0  0  0
  -18.5581   12.2414   24.7623 C   0  0  0  0  0  0  0  0  0  0  0  0
  -19.4954   13.3199   26.8408 C   0  0  0  0  0  0  0  0  0  0  0  0
  -18.1710   13.8225   27.1800 C   0  0  0  0  0  0  0  0  0  0  0  0
  -17.6817   15.0255   26.3116 C   0  0  0  0  0  0  0  0  0  0  0  0
  -18.0553   14.7318   24.8308 C   0  0  0  0  0  0  0  0  0  0  0  0
  -18.4013   10.9335   24.3172 C   0  0  0  0  0  0  0  0  0  0  0  0
  -17.4643   10.7053   23.3236 C   0  0  0  0  0  0  0  0  0  0  0  0
  -16.5628   11.7210   22.9013 C   0  0  0  0  0  0  0  0  0  0  0  0
  -14.5014   13.3365   21.4805 H   0  0  0  0  0  0  0  0  0  0  0  0
  -14.0957   13.0265   23.1838 H   0  0  0  0  0  0  0  0  0  0  0  0
  -13.9831   14.7193   22.4515 H   0  0  0  0  0  0  0  0  0  0  0  0
  -20.3550   11.9891   25.6504 H   0  0  0  0  0  0  0  0  0  0  0  0
  -18.1494   14.1611   28.2302 H   0  0  0  0  0  0  0  0  0  0  0  0
  -17.5553   12.9248   27.0923 H   0  0  0  0  0  0  0  0  0  0  0  0
  -18.1663   16.0004   26.4285 H   0  0  0  0  0  0  0  0  0  0  0  0
  -16.5925   15.1050   26.4355 H   0  0  0  0  0  0  0  0  0  0  0  0
  -17.5289   15.4412   24.1779 H   0  0  0  0  0  0  0  0  0  0  0  0
  -19.0985   15.0218   24.6853 H   0  0  0  0  0  0  0  0  0  0  0  0
  -18.9192   10.0792   24.7382 H   0  0  0  0  0  0  0  0  0  0  0  0
  -17.3837    9.6989   22.9336 H   0  0  0  0  0  0  0  0  0  0  0  0
  -15.8579   11.4929   22.1144 H   0  0  0  0  0  0  0  0  0  0  0  0
  1  8  1  0  0  0  0
  1 18  1  0  0  0  0
  2 15  1  0  0  0  0
  2 16  1  0  0  0  0
  2 17  1  0  0  0  0
  2  3  2  0  0  0  0
  3  4  1  0  0  0  0
  4 14  1  0  0  0  0
  4  6  1  0  0  0  0
  6  7  1  0  0  0  0
  6 11  1  0  0  0  0
  1  7  1  0  0  0  0
  5  8  1  0  0  0  0
  8  9  1  0  0  0  0
  9 10  1  0  0  0  0
  9 19  1  0  0  0  0
  9 20  1  0  0  0  0
 10 11  1  0  0  0  0
 10 21  1  0  0  0  0
 10 22  1  0  0  0  0
 11 23  1  0  0  0  0
 11 24  1  0  0  0  0
  7 12  1  0  0  0  0
 12 25  1  0  0  0  0
 12 13  1  0  0  0  0
 13 26  1  0  0  0  0
 13 14  1  0  0  0  0
 14 27  1  0  0  0  0
M  END
>  <pdb_header>
CRYST1   99.306   99.308   99.302  90.00  90.00  90.00 P 1           1 


$$$$
