top4_centroid
  PyMOL2.3          3D                             0

 26 26  0  0  0  0  0  0  0  0999 V2000
  -19.1551   12.8803   26.3798 N   0  0  0  0  0  0  0  0  0  0  0  0
  -21.2813   13.4611   27.2228 C   0  0  0  0  0  0  0  0  0  0  0  0
  -18.4127   11.4718   23.8671 O   0  0  0  0  0  0  0  0  0  0  0  0
  -20.4748   12.6832   26.3666 C   0  0  0  0  0  0  0  0  0  0  0  0
  -20.9182   11.7120   25.5703 N   0  0  0  0  0  0  0  0  0  0  0  0
  -18.5659   13.5620   25.1746 C   0  0  0  0  0  0  0  0  0  0  0  0
  -17.6408   12.5381   24.4410 C   0  0  0  0  0  0  0  0  0  0  0  0
  -17.9385   14.9814   25.4960 C   0  0  0  0  0  0  0  0  0  0  0  0
  -18.2865   12.8091   27.5181 C   0  0  0  0  0  0  0  0  0  0  0  0
  -22.2333   11.5120   25.5063 C   0  0  0  0  0  0  0  0  0  0  0  0
  -23.1857   12.2511   26.2221 C   0  0  0  0  0  0  0  0  0  0  0  0
  -22.7260   13.2298   27.1029 C   0  0  0  0  0  0  0  0  0  0  0  0
  -20.8531   14.3560   28.1217 F   0  0  0  0  0  0  0  0  0  0  0  0
  -16.7543   12.1817   24.9827 H   0  0  0  0  0  0  0  0  0  0  0  0
  -17.1490   13.0156   23.5861 H   0  0  0  0  0  0  0  0  0  0  0  0
  -19.2989   11.5031   24.2629 H   0  0  0  0  0  0  0  0  0  0  0  0
  -16.9800   14.7988   25.9927 H   0  0  0  0  0  0  0  0  0  0  0  0
  -18.4679   15.6821   26.1493 H   0  0  0  0  0  0  0  0  0  0  0  0
  -17.7684   15.4859   24.5335 H   0  0  0  0  0  0  0  0  0  0  0  0
  -17.2298   12.7662   27.2534 H   0  0  0  0  0  0  0  0  0  0  0  0
  -18.5809   11.8639   27.9848 H   0  0  0  0  0  0  0  0  0  0  0  0
  -18.5868   13.5096   28.3113 H   0  0  0  0  0  0  0  0  0  0  0  0
  -22.6006   10.7838   24.7732 H   0  0  0  0  0  0  0  0  0  0  0  0
  -24.2614   12.1021   26.1411 H   0  0  0  0  0  0  0  0  0  0  0  0
  -23.4292   13.8090   27.6801 H   0  0  0  0  0  0  0  0  0  0  0  0
  -19.4051   13.7214   24.4843 H   0  0  0  0  0  0  0  0  0  0  0  0
  1  4  1  0  0  0  0
  1  9  1  0  0  0  0
  2 12  1  0  0  0  0
  2 13  1  0  0  0  0
  3  7  1  0  0  0  0
  3 16  1  0  0  0  0
  2  4  1  0  0  0  0
  4  5  1  0  0  0  0
  1  6  1  0  0  0  0
  6  8  1  0  0  0  0
  6 26  1  0  0  0  0
  6  7  1  0  0  0  0
  7 14  1  0  0  0  0
  7 15  1  0  0  0  0
  8 17  1  0  0  0  0
  8 18  1  0  0  0  0
  8 19  1  0  0  0  0
  9 20  1  0  0  0  0
  9 21  1  0  0  0  0
  9 22  1  0  0  0  0
  5 10  1  0  0  0  0
 10 23  1  0  0  0  0
 10 11  1  0  0  0  0
 11 24  1  0  0  0  0
 11 12  1  0  0  0  0
 12 25  1  0  0  0  0
M  END
>  <pdb_header>
CRYST1   99.172   99.174   99.168  90.00  90.00  90.00 P 1           1 


$$$$
