
     RDKit          3D

 26 27  0  0  0  0  0  0  0  0999 V2000
  -18.1281   15.2102   24.3987 O   0  0  0  0  0  0  0  0  0  0  0  0
  -18.8127   14.5589   25.1980 C   0  0  0  0  0  0  0  0  0  0  0  0
  -19.2680   15.1672   26.3756 N   0  0  0  0  0  0  0  0  0  0  0  0
  -18.9695   16.5688   26.6579 C   0  0  0  0  0  0  0  0  0  0  0  0
  -19.4382   17.1878   25.8836 H   0  0  0  0  0  0  0  0  0  0  0  0
  -19.4111   16.8554   27.6186 H   0  0  0  0  0  0  0  0  0  0  0  0
  -17.5051   16.7805   26.6687 C   0  0  0  0  0  0  0  0  0  0  0  0
  -16.7480   15.8129   27.1907 O   0  0  0  0  0  0  0  0  0  0  0  0
  -15.4552   16.1593   27.1379 N   0  0  0  0  0  0  0  0  0  0  0  0
  -15.3957   17.3248   26.5924 C   0  0  0  0  0  0  0  0  0  0  0  0
  -14.1018   18.0046   26.3766 C   0  0  0  0  0  0  0  0  0  0  0  0
  -14.2496   19.0520   26.0935 H   0  0  0  0  0  0  0  0  0  0  0  0
  -13.5411   17.5138   25.5739 H   0  0  0  0  0  0  0  0  0  0  0  0
  -13.4926   17.9857   27.2861 H   0  0  0  0  0  0  0  0  0  0  0  0
  -16.6754   17.7612   26.2811 C   0  0  0  0  0  0  0  0  0  0  0  0
  -16.9495   18.6803   25.8318 H   0  0  0  0  0  0  0  0  0  0  0  0
  -20.0184   14.5019   27.3238 N   0  0  0  0  0  0  0  0  0  0  0  0
  -20.3360   13.2575   27.1460 C   0  0  0  0  0  0  0  0  0  0  0  0
  -21.1514   12.5526   28.1928 C   0  0  0  0  0  0  0  0  0  0  0  0
  -22.0796   13.1075   28.3627 H   0  0  0  0  0  0  0  0  0  0  0  0
  -20.5827   12.5162   29.1273 H   0  0  0  0  0  0  0  0  0  0  0  0
  -21.4000   11.5327   27.8895 H   0  0  0  0  0  0  0  0  0  0  0  0
  -19.9225   12.5568   25.9758 C   0  0  0  0  0  0  0  0  0  0  0  0
  -20.2009   11.5413   25.8577 H   0  0  0  0  0  0  0  0  0  0  0  0
  -19.1805   13.1907   25.0228 C   0  0  0  0  0  0  0  0  0  0  0  0
  -18.8581   12.6987   24.1434 H   0  0  0  0  0  0  0  0  0  0  0  0
  1  2  2  0
  2  3  1  0
  2 25  1  0
  3  4  1  0
  3 17  1  0
  4  5  1  0
  4  6  1  0
  4  7  1  0
  7  8  1  0
  7 15  2  0
  8  9  1  0
  9 10  2  0
 10 11  1  0
 10 15  1  0
 11 12  1  0
 11 13  1  0
 11 14  1  0
 15 16  1  0
 17 18  2  0
 18 19  1  0
 18 23  1  0
 19 20  1  0
 19 21  1  0
 19 22  1  0
 23 24  1  0
 23 25  2  0
 25 26  1  0
M  END
$$$$
