top3_centroid
  PyMOL2.3          3D                             0

 39 40  0  0  0  0  0  0  0  0999 V2000
  -19.2965   20.9132   27.0766 N   0  0  0  0  0  0  0  0  0  0  0  0
  -20.4054   20.1489   27.4799 C   0  0  0  0  0  0  0  0  0  0  0  0
  -21.4972   20.6071   27.6065 O   0  0  0  0  0  0  0  0  0  0  0  0
  -20.0702   18.8308   28.1589 C   0  0  0  0  0  0  0  0  0  0  0  0
  -16.8735   22.6369   26.4211 N   0  0  0  0  0  0  0  0  0  0  0  0
  -19.8594   17.7484   27.2383 O   0  0  0  0  0  0  0  0  0  0  0  0
  -19.7128   16.4036   27.6000 C   0  0  0  0  0  0  0  0  0  0  0  0
  -20.3477   15.9284   28.7296 C   0  0  0  0  0  0  0  0  0  0  0  0
  -20.1702   14.5686   29.0892 C   0  0  0  0  0  0  0  0  0  0  0  0
  -19.3951   13.7065   28.2761 C   0  0  0  0  0  0  0  0  0  0  0  0
  -19.2412   12.1979   28.7226 C   0  0  0  0  0  0  0  0  0  0  0  0
  -18.9221   14.1640   27.0564 C   0  0  0  0  0  0  0  0  0  0  0  0
  -19.1475   15.5100   26.6899 C   0  0  0  0  0  0  0  0  0  0  0  0
  -19.4417   22.3668   27.1862 C   0  0  0  0  0  0  0  0  0  0  0  0
  -18.0733   23.1811   27.2470 C   0  0  0  0  0  0  0  0  0  0  0  0
  -15.5582   23.2143   26.8221 C   0  0  0  0  0  0  0  0  0  0  0  0
  -16.8324   21.1187   26.6403 C   0  0  0  0  0  0  0  0  0  0  0  0
  -18.1585   20.4272   26.2489 C   0  0  0  0  0  0  0  0  0  0  0  0
  -19.1588   18.9926   28.7617 H   0  0  0  0  0  0  0  0  0  0  0  0
  -20.9653   18.6471   28.7633 H   0  0  0  0  0  0  0  0  0  0  0  0
  -20.8702   16.6222   29.3772 H   0  0  0  0  0  0  0  0  0  0  0  0
  -20.5685   14.2811   30.0599 H   0  0  0  0  0  0  0  0  0  0  0  0
  -19.2851   11.4946   27.8793 H   0  0  0  0  0  0  0  0  0  0  0  0
  -18.2947   11.9675   29.2282 H   0  0  0  0  0  0  0  0  0  0  0  0
  -19.9828   11.7531   29.4013 H   0  0  0  0  0  0  0  0  0  0  0  0
  -18.3510   13.5916   26.3456 H   0  0  0  0  0  0  0  0  0  0  0  0
  -18.7513   15.8065   25.7232 H   0  0  0  0  0  0  0  0  0  0  0  0
  -19.9173   22.7722   26.2900 H   0  0  0  0  0  0  0  0  0  0  0  0
  -20.0478   22.6258   28.0582 H   0  0  0  0  0  0  0  0  0  0  0  0
  -17.7952   23.1639   28.2967 H   0  0  0  0  0  0  0  0  0  0  0  0
  -18.2757   24.2126   26.9336 H   0  0  0  0  0  0  0  0  0  0  0  0
  -17.0272   22.8831   25.4390 H   0  0  0  0  0  0  0  0  0  0  0  0
  -15.6150   24.3069   26.7787 H   0  0  0  0  0  0  0  0  0  0  0  0
  -15.1888   22.8246   27.7767 H   0  0  0  0  0  0  0  0  0  0  0  0
  -14.8606   22.8529   26.0686 H   0  0  0  0  0  0  0  0  0  0  0  0
  -16.7356   20.9279   27.7069 H   0  0  0  0  0  0  0  0  0  0  0  0
  -15.9652   20.7410   26.0890 H   0  0  0  0  0  0  0  0  0  0  0  0
  -18.0232   19.3379   26.3372 H   0  0  0  0  0  0  0  0  0  0  0  0
  -18.2310   20.6041   25.1721 H   0  0  0  0  0  0  0  0  0  0  0  0
  1 14  1  0  0  0  0
  1 18  1  0  0  0  0
  1  2  1  0  0  0  0
  2  3  2  0  0  0  0
  2  4  1  0  0  0  0
  4 19  1  0  0  0  0
  4 20  1  0  0  0  0
  5 16  1  0  0  0  0
  5 17  1  0  0  0  0
  5 32  1  0  0  0  0
  4  6  1  0  0  0  0
  6  7  1  0  0  0  0
  7  8  1  0  0  0  0
  8 21  1  0  0  0  0
  8  9  1  0  0  0  0
  9 22  1  0  0  0  0
  9 10  1  0  0  0  0
 10 12  1  0  0  0  0
 10 11  1  0  0  0  0
 11 23  1  0  0  0  0
 11 24  1  0  0  0  0
 11 25  1  0  0  0  0
 12 13  1  0  0  0  0
 12 26  1  0  0  0  0
  7 13  1  0  0  0  0
 13 27  1  0  0  0  0
 14 15  1  0  0  0  0
 14 28  1  0  0  0  0
 14 29  1  0  0  0  0
  5 15  1  0  0  0  0
 15 30  1  0  0  0  0
 15 31  1  0  0  0  0
 16 33  1  0  0  0  0
 16 34  1  0  0  0  0
 16 35  1  0  0  0  0
 17 18  1  0  0  0  0
 17 36  1  0  0  0  0
 17 37  1  0  0  0  0
 18 38  1  0  0  0  0
 18 39  1  0  0  0  0
M  END
>  <pdb_header>
CRYST1   98.984   98.986   98.980  90.00  90.00  90.00 P 1           1 


$$$$
