top3_centroid
  PyMOL2.3          3D                             0

 18 18  0  0  0  0  0  0  0  0999 V2000
  -15.7207   12.7138   22.5692 N   0  0  0  0  0  0  0  0  0  0  0  0
  -18.7901   12.0726   24.3308 C   0  0  0  0  0  0  0  0  0  0  0  0
  -19.7414   11.3636   24.1943 O   0  0  0  0  0  0  0  0  0  0  0  0
  -19.6295   12.9256   26.4064 C   0  0  0  0  0  0  0  0  0  0  0  0
  -16.2285   11.7084   21.6749 N   0  0  0  0  0  0  0  0  0  0  0  0
  -18.5775   12.9029   25.4139 O   0  0  0  0  0  0  0  0  0  0  0  0
  -19.3714   13.9857   27.3582 C   0  0  0  0  0  0  0  0  0  0  0  0
  -17.5917   12.1589   23.4644 C   0  0  0  0  0  0  0  0  0  0  0  0
  -16.5384   13.0279   23.5708 C   0  0  0  0  0  0  0  0  0  0  0  0
  -17.3440   11.3937   22.2803 C   0  0  0  0  0  0  0  0  0  0  0  0
  -19.7365   11.9497   26.8847 H   0  0  0  0  0  0  0  0  0  0  0  0
  -20.5835   13.2193   25.9660 H   0  0  0  0  0  0  0  0  0  0  0  0
  -20.2585   14.2855   27.9173 H   0  0  0  0  0  0  0  0  0  0  0  0
  -18.9344   14.8888   26.9139 H   0  0  0  0  0  0  0  0  0  0  0  0
  -18.5506   13.5940   27.9745 H   0  0  0  0  0  0  0  0  0  0  0  0
  -16.3239   13.8160   24.2788 H   0  0  0  0  0  0  0  0  0  0  0  0
  -14.8845   13.2518   22.4006 H   0  0  0  0  0  0  0  0  0  0  0  0
  -18.0614   10.7428   21.8015 H   0  0  0  0  0  0  0  0  0  0  0  0
  1  5  1  0  0  0  0
  1 17  1  0  0  0  0
  2  3  2  0  0  0  0
  2  8  1  0  0  0  0
  4  6  1  0  0  0  0
  4 11  1  0  0  0  0
  4 12  1  0  0  0  0
  5 10  1  0  0  0  0
  2  6  1  0  0  0  0
  4  7  1  0  0  0  0
  7 13  1  0  0  0  0
  7 14  1  0  0  0  0
  7 15  1  0  0  0  0
  8  9  1  0  0  0  0
  8 10  1  0  0  0  0
  1  9  1  0  0  0  0
  9 16  1  0  0  0  0
 10 18  1  0  0  0  0
M  END
>  <pdb_header>
CRYST1   99.385   99.386   99.381  90.00  90.00  90.00 P 1           1 


$$$$
