top4_centroid
  PyMOL2.3          3D                             0

 19 19  0  0  0  0  0  0  0  0999 V2000
  -17.4707   12.2983   23.9823 N   0  0  0  0  0  0  0  0  0  0  0  0
  -15.7105   12.7222   22.8083 C   0  0  0  0  0  0  0  0  0  0  0  0
  -21.0069   12.9547   25.1286 O   0  0  0  0  0  0  0  0  0  0  0  0
  -16.5574   13.3028   23.7233 C   0  0  0  0  0  0  0  0  0  0  0  0
  -17.1946   11.1657   23.2862 N   0  0  0  0  0  0  0  0  0  0  0  0
  -18.6323   12.3605   24.8532 C   0  0  0  0  0  0  0  0  0  0  0  0
  -19.8741   13.2148   24.2786 C   0  0  0  0  0  0  0  0  0  0  0  0
  -20.9613   13.6054   26.3767 C   0  0  0  0  0  0  0  0  0  0  0  0
  -16.1504   11.4442   22.5191 C   0  0  0  0  0  0  0  0  0  0  0  0
  -14.1760   13.5248   22.1519 B   0  0  0  0  0  0  0  0  0  0  0  0
  -16.6715   14.3081   24.1061 H   0  0  0  0  0  0  0  0  0  0  0  0
  -19.0113   11.3538   25.0849 H   0  0  0  0  0  0  0  0  0  0  0  0
  -18.3497   12.7544   25.8315 H   0  0  0  0  0  0  0  0  0  0  0  0
  -20.0219   12.9686   23.2286 H   0  0  0  0  0  0  0  0  0  0  0  0
  -19.5841   14.2677   24.3270 H   0  0  0  0  0  0  0  0  0  0  0  0
  -20.3504   13.0902   27.1305 H   0  0  0  0  0  0  0  0  0  0  0  0
  -22.0126   13.5995   26.7095 H   0  0  0  0  0  0  0  0  0  0  0  0
  -20.6136   14.6456   26.2782 H   0  0  0  0  0  0  0  0  0  0  0  0
  -15.6278   10.6999   21.9331 H   0  0  0  0  0  0  0  0  0  0  0  0
  1  6  1  0  0  0  0
  2  9  1  0  0  0  0
  2 10  1  0  0  0  0
  3  8  1  0  0  0  0
  1  4  1  0  0  0  0
  2  4  1  0  0  0  0
  4 11  1  0  0  0  0
  1  5  1  0  0  0  0
  6  7  1  0  0  0  0
  6 12  1  0  0  0  0
  6 13  1  0  0  0  0
  3  7  1  0  0  0  0
  7 14  1  0  0  0  0
  7 15  1  0  0  0  0
  8 16  1  0  0  0  0
  8 17  1  0  0  0  0
  8 18  1  0  0  0  0
  5  9  1  0  0  0  0
  9 19  1  0  0  0  0
M  END
>  <pdb_header>
CRYST1   99.400   99.402   99.396  90.00  90.00  90.00 P 1           1 


$$$$
