top3_centroid
  PyMOL2.3          3D                             0

 27 27  0  0  0  0  0  0  0  0999 V2000
  -13.8551   21.9130   25.8803 N   0  0  0  0  0  0  0  0  0  0  0  0
  -15.5779   20.1449   25.7091 C   0  0  0  0  0  0  0  0  0  0  0  0
  -13.6227   20.7662   23.8130 O   0  0  0  0  0  0  0  0  0  0  0  0
  -15.1834   18.7987   25.6619 C   0  0  0  0  0  0  0  0  0  0  0  0
  -18.3195   16.0041   27.1708 N   0  0  0  0  0  0  0  0  0  0  0  0
  -15.3690   22.5837   24.4427 O   0  0  0  0  0  0  0  0  0  0  0  0
  -15.8866   17.7817   26.4039 C   0  0  0  0  0  0  0  0  0  0  0  0
  -19.9464   15.1727   28.5273 O   0  0  0  0  0  0  0  0  0  0  0  0
  -16.9965   18.1252   27.2400 C   0  0  0  0  0  0  0  0  0  0  0  0
  -17.9265   17.1584   27.9361 C   0  0  0  0  0  0  0  0  0  0  0  0
  -19.3172   15.1167   27.4819 C   0  0  0  0  0  0  0  0  0  0  0  0
  -19.6431   14.0822   26.3527 C   0  0  0  0  0  0  0  0  0  0  0  0
  -17.3785   19.4503   27.2334 C   0  0  0  0  0  0  0  0  0  0  0  0
  -16.7580   20.4858   26.4551 C   0  0  0  0  0  0  0  0  0  0  0  0
  -14.7018   21.2813   24.7068 S   0  0  0  0  0  0  0  0  0  0  0  0
  -14.4153   22.7516   25.9725 H   0  0  0  0  0  0  0  0  0  0  0  0
  -13.0743   22.2017   25.2845 H   0  0  0  0  0  0  0  0  0  0  0  0
  -14.3316   18.5736   25.0289 H   0  0  0  0  0  0  0  0  0  0  0  0
  -15.5323   16.7626   26.3265 H   0  0  0  0  0  0  0  0  0  0  0  0
  -18.8706   17.6227   28.2513 H   0  0  0  0  0  0  0  0  0  0  0  0
  -17.3562   16.7422   28.7821 H   0  0  0  0  0  0  0  0  0  0  0  0
  -17.8520   15.7630   26.3042 H   0  0  0  0  0  0  0  0  0  0  0  0
  -20.3716   14.3895   25.5836 H   0  0  0  0  0  0  0  0  0  0  0  0
  -18.6923   13.6513   26.0122 H   0  0  0  0  0  0  0  0  0  0  0  0
  -20.0462   13.2183   26.8952 H   0  0  0  0  0  0  0  0  0  0  0  0
  -18.2808   19.6696   27.8061 H   0  0  0  0  0  0  0  0  0  0  0  0
  -17.0774   21.5223   26.4601 H   0  0  0  0  0  0  0  0  0  0  0  0
  1 16  1  0  0  0  0
  1 17  1  0  0  0  0
  2  4  1  0  0  0  0
  2 14  1  0  0  0  0
  3 15  1  0  0  0  0
  4  7  1  0  0  0  0
  4 18  1  0  0  0  0
  5 11  1  0  0  0  0
  5 22  1  0  0  0  0
  7  9  1  0  0  0  0
  7 19  1  0  0  0  0
  9 10  1  0  0  0  0
  5 10  1  0  0  0  0
 10 20  1  0  0  0  0
 10 21  1  0  0  0  0
  8 11  1  0  0  0  0
 11 12  1  0  0  0  0
 12 23  1  0  0  0  0
 12 24  1  0  0  0  0
 12 25  1  0  0  0  0
  9 13  1  0  0  0  0
 13 26  1  0  0  0  0
 13 14  1  0  0  0  0
 14 27  1  0  0  0  0
  1 15  1  0  0  0  0
  2 15  1  0  0  0  0
  6 15  1  0  0  0  0
M  END
>  <pdb_header>
CRYST1   99.207   99.209   99.203  90.00  90.00  90.00 P 1           1 


$$$$
