top1_centroid
  PyMOL2.3          3D                             0

 23 23  0  0  0  0  0  0  0  0999 V2000
  -22.3277   10.5502   24.2580 N   0  0  0  0  0  0  0  0  0  0  0  0
  -23.4889   12.7672   27.0901 C   0  0  0  0  0  0  0  0  0  0  0  0
  -24.4630   11.1527   24.7442 O   0  0  0  0  0  0  0  0  0  0  0  0
  -22.7740   12.3688   25.9138 C   0  0  0  0  0  0  0  0  0  0  0  0
  -21.4858   12.6888   25.7643 N   0  0  0  0  0  0  0  0  0  0  0  0
  -23.2932   11.3524   24.9103 C   0  0  0  0  0  0  0  0  0  0  0  0
  -21.6063   13.9607   27.7920 N   0  0  0  0  0  0  0  0  0  0  0  0
  -20.9810   13.4903   26.7372 C   0  0  0  0  0  0  0  0  0  0  0  0
  -19.4788   13.7230   26.6228 C   0  0  0  0  0  0  0  0  0  0  0  0
  -18.6915   12.6954   27.4208 C   0  0  0  0  0  0  0  0  0  0  0  0
  -18.8227   13.9369   25.2174 C   0  0  0  0  0  0  0  0  0  0  0  0
  -22.9193   13.6667   27.9368 C   0  0  0  0  0  0  0  0  0  0  0  0
  -25.1083   12.0921   27.6137 C   0  0  0  0  0  0  0  0  0  0  0  0
  -22.5956    9.9683   23.4714 H   0  0  0  0  0  0  0  0  0  0  0  0
  -21.3639   10.7301   24.4922 H   0  0  0  0  0  0  0  0  0  0  0  0
  -19.2681   14.6923   27.0831 H   0  0  0  0  0  0  0  0  0  0  0  0
  -18.8996   12.7834   28.4953 H   0  0  0  0  0  0  0  0  0  0  0  0
  -17.6131   12.8175   27.2860 H   0  0  0  0  0  0  0  0  0  0  0  0
  -18.9374   11.6448   27.2385 H   0  0  0  0  0  0  0  0  0  0  0  0
  -18.6076   13.0905   24.5644 H   0  0  0  0  0  0  0  0  0  0  0  0
  -17.8817   14.4849   25.3522 H   0  0  0  0  0  0  0  0  0  0  0  0
  -19.3698   14.6122   24.5440 H   0  0  0  0  0  0  0  0  0  0  0  0
  -23.4251   14.0832   28.8040 H   0  0  0  0  0  0  0  0  0  0  0  0
  1 14  1  0  0  0  0
  1 15  1  0  0  0  0
  2 12  1  0  0  0  0
  2 13  1  0  0  0  0
  3  6  1  0  0  0  0
  2  4  1  0  0  0  0
  4  5  1  0  0  0  0
  5  8  1  0  0  0  0
  1  6  1  0  0  0  0
  4  6  1  0  0  0  0
  7  8  1  0  0  0  0
  8  9  1  0  0  0  0
  9 10  1  0  0  0  0
  9 11  1  0  0  0  0
  9 16  1  0  0  0  0
 10 17  1  0  0  0  0
 10 18  1  0  0  0  0
 10 19  1  0  0  0  0
 11 20  1  0  0  0  0
 11 21  1  0  0  0  0
 11 22  1  0  0  0  0
  7 12  1  0  0  0  0
 12 23  1  0  0  0  0
M  END
>  <pdb_header>
CRYST1   99.220   99.222   99.216  90.00  90.00  90.00 P 1           1 


$$$$
