top3_centroid
  PyMOL2.3          3D                             0

 35 37  0  0  0  0  0  0  0  0999 V2000
  -20.8936   11.9750   25.6002 N   0  0  0  0  0  0  0  0  0  0  0  0
  -17.1476   12.1916   23.7083 C   0  0  0  0  0  0  0  0  0  0  0  0
  -25.6394   13.1058   25.7260 O   0  0  0  0  0  0  0  0  0  0  0  0
  -17.7360   13.3631   24.2137 C   0  0  0  0  0  0  0  0  0  0  0  0
  -23.6556   12.1652   26.5658 N   0  0  0  0  0  0  0  0  0  0  0  0
  -19.0630   13.3269   24.8601 C   0  0  0  0  0  0  0  0  0  0  0  0
  -19.5742   12.0702   25.1141 C   0  0  0  0  0  0  0  0  0  0  0  0
  -21.1636   12.3618   27.0507 C   0  0  0  0  0  0  0  0  0  0  0  0
  -22.5650   12.0168   27.6009 C   0  0  0  0  0  0  0  0  0  0  0  0
  -24.8474   12.8998   26.6831 C   0  0  0  0  0  0  0  0  0  0  0  0
  -25.1437   13.3858   28.0688 C   0  0  0  0  0  0  0  0  0  0  0  0
  -25.8965   14.6932   28.1836 C   0  0  0  0  0  0  0  0  0  0  0  0
  -24.4302   14.6845   28.5613 C   0  0  0  0  0  0  0  0  0  0  0  0
  -23.2580   11.6011   25.2452 C   0  0  0  0  0  0  0  0  0  0  0  0
  -21.9058   10.9650   25.1430 C   0  0  0  0  0  0  0  0  0  0  0  0
  -18.8926   10.8998   24.6551 C   0  0  0  0  0  0  0  0  0  0  0  0
  -17.6202   10.9300   23.9869 C   0  0  0  0  0  0  0  0  0  0  0  0
  -15.9005   12.2907   23.0441 F   0  0  0  0  0  0  0  0  0  0  0  0
  -17.3152   14.3206   23.9334 H   0  0  0  0  0  0  0  0  0  0  0  0
  -19.6129   14.2404   25.0755 H   0  0  0  0  0  0  0  0  0  0  0  0
  -20.4012   11.9435   27.7189 H   0  0  0  0  0  0  0  0  0  0  0  0
  -20.9762   13.4284   27.2195 H   0  0  0  0  0  0  0  0  0  0  0  0
  -22.8052   12.5871   28.5059 H   0  0  0  0  0  0  0  0  0  0  0  0
  -22.5373   10.9355   27.8214 H   0  0  0  0  0  0  0  0  0  0  0  0
  -25.2649   12.5341   28.7376 H   0  0  0  0  0  0  0  0  0  0  0  0
  -26.1140   15.2690   27.2958 H   0  0  0  0  0  0  0  0  0  0  0  0
  -26.6006   14.7382   29.0121 H   0  0  0  0  0  0  0  0  0  0  0  0
  -23.6726   14.9492   27.8216 H   0  0  0  0  0  0  0  0  0  0  0  0
  -24.1617   14.7949   29.6063 H   0  0  0  0  0  0  0  0  0  0  0  0
  -23.9778   10.8220   24.9670 H   0  0  0  0  0  0  0  0  0  0  0  0
  -23.3741   12.4232   24.5365 H   0  0  0  0  0  0  0  0  0  0  0  0
  -21.7055   10.7165   24.0863 H   0  0  0  0  0  0  0  0  0  0  0  0
  -21.6862    9.9989   25.5992 H   0  0  0  0  0  0  0  0  0  0  0  0
  -19.3300    9.9278   24.8501 H   0  0  0  0  0  0  0  0  0  0  0  0
  -17.0893   10.0543   23.6294 H   0  0  0  0  0  0  0  0  0  0  0  0
  1  8  1  0  0  0  0
  1 15  1  0  0  0  0
  2 17  1  0  0  0  0
  2 18  1  0  0  0  0
  2  4  1  0  0  0  0
  4 19  1  0  0  0  0
  5 10  1  0  0  0  0
  4  6  1  0  0  0  0
  6  7  1  0  0  0  0
  6 20  1  0  0  0  0
  1  7  1  0  0  0  0
  8  9  1  0  0  0  0
  8 21  1  0  0  0  0
  8 22  1  0  0  0  0
  5  9  1  0  0  0  0
  9 23  1  0  0  0  0
  9 24  1  0  0  0  0
  3 10  1  0  0  0  0
 10 11  1  0  0  0  0
 11 12  1  0  0  0  0
 11 13  1  0  0  0  0
 11 25  1  0  0  0  0
 12 13  1  0  0  0  0
 12 26  1  0  0  0  0
 12 27  1  0  0  0  0
 13 28  1  0  0  0  0
 13 29  1  0  0  0  0
  5 14  1  0  0  0  0
 14 30  1  0  0  0  0
 14 31  1  0  0  0  0
 14 15  1  0  0  0  0
 15 32  1  0  0  0  0
 15 33  1  0  0  0  0
  7 16  1  0  0  0  0
 16 34  1  0  0  0  0
 16 17  1  0  0  0  0
 17 35  1  0  0  0  0
M  END
>  <pdb_header>
CRYST1   99.188   99.190   99.184  90.00  90.00  90.00 P 1           1 


$$$$
