
     RDKit          3D

 29 30  0  0  0  0  0  0  0  0999 V2000
  -24.5869   14.2455   31.6070 F   0  0  0  0  0  0  0  0  0  0  0  0
  -23.6588   13.4389   32.1439 C   0  0  0  0  0  0  0  0  0  0  0  0
  -23.2715   12.2846   31.4596 C   0  0  0  0  0  0  0  0  0  0  0  0
  -23.8647   11.9299   30.1193 C   0  0  0  0  0  0  0  0  0  0  0  0
  -24.9607   11.9568   30.1717 H   0  0  0  0  0  0  0  0  0  0  0  0
  -23.6172   10.8811   29.9065 H   0  0  0  0  0  0  0  0  0  0  0  0
  -23.3860   12.8213   28.9781 C   0  0  0  0  0  0  0  0  0  0  0  0
  -23.9642   14.2000   28.9366 C   0  0  0  0  0  0  0  0  0  0  0  0
  -23.3907   15.1818   29.3631 O   0  0  0  0  0  0  0  0  0  0  0  0
  -25.2051   14.3260   28.4051 N   0  0  0  0  0  0  0  0  0  0  0  0
  -25.6748   13.4830   28.1061 H   0  0  0  0  0  0  0  0  0  0  0  0
  -25.8796   15.5920   28.2687 C   0  0  0  0  0  0  0  0  0  0  0  0
  -26.0782   15.9996   29.2634 H   0  0  0  0  0  0  0  0  0  0  0  0
  -25.2451   16.2850   27.7105 H   0  0  0  0  0  0  0  0  0  0  0  0
  -26.8197   15.4325   27.7349 H   0  0  0  0  0  0  0  0  0  0  0  0
  -22.9309   12.2208   27.6446 C   0  0  0  0  0  0  0  0  0  0  0  0
  -23.0822   12.8040   26.7407 H   0  0  0  0  0  0  0  0  0  0  0  0
  -22.9930   11.1527   27.4762 H   0  0  0  0  0  0  0  0  0  0  0  0
  -21.9044   12.7018   28.6138 C   0  0  0  0  0  0  0  0  0  0  0  0
  -21.3592   13.6073   28.3704 H   0  0  0  0  0  0  0  0  0  0  0  0
  -21.2988   11.9558   29.1158 H   0  0  0  0  0  0  0  0  0  0  0  0
  -22.3129   11.4633   32.0540 C   0  0  0  0  0  0  0  0  0  0  0  0
  -21.9955   10.5765   31.5681 H   0  0  0  0  0  0  0  0  0  0  0  0
  -21.7666   11.7986   33.2934 C   0  0  0  0  0  0  0  0  0  0  0  0
  -21.0377   11.1661   33.7362 H   0  0  0  0  0  0  0  0  0  0  0  0
  -22.1687   12.9580   33.9558 C   0  0  0  0  0  0  0  0  0  0  0  0
  -21.7481   13.2053   34.8977 H   0  0  0  0  0  0  0  0  0  0  0  0
  -23.1241   13.7875   33.3780 C   0  0  0  0  0  0  0  0  0  0  0  0
  -23.4432   14.6716   33.8656 H   0  0  0  0  0  0  0  0  0  0  0  0
  1  2  1  0
  2  3  1  0
  2 28  2  0
  3  4  1  0
  3 22  2  0
  4  5  1  0
  4  6  1  0
  4  7  1  0
  7  8  1  0
  7 16  1  0
  7 19  1  0
  8  9  2  0
  8 10  1  0
 10 11  1  0
 10 12  1  0
 12 13  1  0
 12 14  1  0
 12 15  1  0
 16 17  1  0
 16 18  1  0
 16 19  1  0
 19 20  1  0
 19 21  1  0
 22 23  1  0
 22 24  1  0
 24 25  1  0
 24 26  2  0
 26 27  1  0
 26 28  1  0
 28 29  1  0
M  END
$$$$
