top1_centroid
  PyMOL2.3          3D                             0

 29 30  0  0  0  0  0  0  0  0999 V2000
  -18.4560   17.3478   27.0849 N   0  0  0  0  0  0  0  0  0  0  0  0
  -19.3973   16.3063   27.3512 C   0  0  0  0  0  0  0  0  0  0  0  0
  -20.5966   16.3795   27.5622 O   0  0  0  0  0  0  0  0  0  0  0  0
  -18.7619   18.6973   26.8922 C   0  0  0  0  0  0  0  0  0  0  0  0
  -19.8009   20.5442   26.6286 N   0  0  0  0  0  0  0  0  0  0  0  0
  -19.9906   19.2492   26.9374 C   0  0  0  0  0  0  0  0  0  0  0  0
  -18.4720   20.8280   26.3275 N   0  0  0  0  0  0  0  0  0  0  0  0
  -20.8619   21.4653   26.3557 C   0  0  0  0  0  0  0  0  0  0  0  0
  -22.0914   20.9010   25.6221 C   0  0  0  0  0  0  0  0  0  0  0  0
  -17.8042   19.6801   26.4557 C   0  0  0  0  0  0  0  0  0  0  0  0
  -18.3098   15.1200   27.1924 C   0  0  0  0  0  0  0  0  0  0  0  0
  -19.1063   13.9477   27.9995 C   0  0  0  0  0  0  0  0  0  0  0  0
  -18.8024   13.1029   26.7084 C   0  0  0  0  0  0  0  0  0  0  0  0
  -18.6733   14.4378   25.8707 C   0  0  0  0  0  0  0  0  0  0  0  0
  -17.4802   17.1196   26.9505 H   0  0  0  0  0  0  0  0  0  0  0  0
  -20.9600   18.7982   27.1391 H   0  0  0  0  0  0  0  0  0  0  0  0
  -21.1009   21.6850   27.4042 H   0  0  0  0  0  0  0  0  0  0  0  0
  -20.5745   22.4326   25.9181 H   0  0  0  0  0  0  0  0  0  0  0  0
  -22.7641   21.7539   25.5151 H   0  0  0  0  0  0  0  0  0  0  0  0
  -21.9404   20.4810   24.6201 H   0  0  0  0  0  0  0  0  0  0  0  0
  -22.5990   20.1285   26.2272 H   0  0  0  0  0  0  0  0  0  0  0  0
  -16.7206   19.6316   26.4398 H   0  0  0  0  0  0  0  0  0  0  0  0
  -17.2613   15.2681   27.4790 H   0  0  0  0  0  0  0  0  0  0  0  0
  -20.1859   14.0960   28.1037 H   0  0  0  0  0  0  0  0  0  0  0  0
  -18.5743   13.6513   28.9188 H   0  0  0  0  0  0  0  0  0  0  0  0
  -19.6567   12.4558   26.4647 H   0  0  0  0  0  0  0  0  0  0  0  0
  -17.8546   12.5658   26.6672 H   0  0  0  0  0  0  0  0  0  0  0  0
  -19.6681   14.5516   25.4139 H   0  0  0  0  0  0  0  0  0  0  0  0
  -17.9336   14.4956   25.0610 H   0  0  0  0  0  0  0  0  0  0  0  0
  1  2  1  0  0  0  0
  1 15  1  0  0  0  0
  2  3  2  0  0  0  0
  2 11  1  0  0  0  0
  1  4  1  0  0  0  0
  5  6  1  0  0  0  0
  5  7  1  0  0  0  0
  4  6  1  0  0  0  0
  6 16  1  0  0  0  0
  7 10  1  0  0  0  0
  5  8  1  0  0  0  0
  8 17  1  0  0  0  0
  8 18  1  0  0  0  0
  8  9  1  0  0  0  0
  9 19  1  0  0  0  0
  9 20  1  0  0  0  0
  9 21  1  0  0  0  0
  4 10  1  0  0  0  0
 10 22  1  0  0  0  0
 11 12  1  0  0  0  0
 11 14  1  0  0  0  0
 11 23  1  0  0  0  0
 12 13  1  0  0  0  0
 12 24  1  0  0  0  0
 12 25  1  0  0  0  0
 13 14  1  0  0  0  0
 13 26  1  0  0  0  0
 13 27  1  0  0  0  0
 14 28  1  0  0  0  0
 14 29  1  0  0  0  0
M  END
>  <pdb_header>
CRYST1   99.200   99.202   99.196  90.00  90.00  90.00 P 1           1 


$$$$
