top3_centroid
  PyMOL2.3          3D                             0

 23 23  0  0  0  0  0  0  0  0999 V2000
  -13.8472   16.5369   25.8524 N   0  0  0  0  0  0  0  0  0  0  0  0
  -16.8259   18.3342   27.2975 C   0  0  0  0  0  0  0  0  0  0  0  0
  -14.0050   18.6075   26.0122 O   0  0  0  0  0  0  0  0  0  0  0  0
  -15.8930   17.2985   26.8910 C   0  0  0  0  0  0  0  0  0  0  0  0
  -16.2702   15.9598   27.0391 N   0  0  0  0  0  0  0  0  0  0  0  0
  -14.6187   17.5830   26.1897 C   0  0  0  0  0  0  0  0  0  0  0  0
  -18.3471   16.6825   27.9713 N   0  0  0  0  0  0  0  0  0  0  0  0
  -17.4099   15.7429   27.6588 C   0  0  0  0  0  0  0  0  0  0  0  0
  -17.8268   14.2691   27.7767 C   0  0  0  0  0  0  0  0  0  0  0  0
  -17.6593   13.7973   29.1885 C   0  0  0  0  0  0  0  0  0  0  0  0
  -19.2767   13.9463   27.2225 C   0  0  0  0  0  0  0  0  0  0  0  0
  -17.9872   17.9551   27.8096 C   0  0  0  0  0  0  0  0  0  0  0  0
  -16.3524   20.0321   27.2602 C   0  0  0  0  0  0  0  0  0  0  0  0
  -12.9778   16.7008   25.3575 H   0  0  0  0  0  0  0  0  0  0  0  0
  -14.1813   15.6015   26.0571 H   0  0  0  0  0  0  0  0  0  0  0  0
  -17.1756   13.7006   27.0934 H   0  0  0  0  0  0  0  0  0  0  0  0
  -17.8637   12.7115   29.2468 H   0  0  0  0  0  0  0  0  0  0  0  0
  -18.3276   14.3128   29.8866 H   0  0  0  0  0  0  0  0  0  0  0  0
  -16.6169   13.9499   29.4812 H   0  0  0  0  0  0  0  0  0  0  0  0
  -19.3835   13.8709   26.1331 H   0  0  0  0  0  0  0  0  0  0  0  0
  -20.0314   14.6917   27.4948 H   0  0  0  0  0  0  0  0  0  0  0  0
  -19.7528   13.0321   27.6219 H   0  0  0  0  0  0  0  0  0  0  0  0
  -18.7581   18.6846   28.0598 H   0  0  0  0  0  0  0  0  0  0  0  0
  1 14  1  0  0  0  0
  1 15  1  0  0  0  0
  2 12  1  0  0  0  0
  2 13  1  0  0  0  0
  3  6  1  0  0  0  0
  2  4  1  0  0  0  0
  4  5  1  0  0  0  0
  5  8  1  0  0  0  0
  1  6  1  0  0  0  0
  4  6  1  0  0  0  0
  7  8  1  0  0  0  0
  8  9  1  0  0  0  0
  9 10  1  0  0  0  0
  9 11  1  0  0  0  0
  9 16  1  0  0  0  0
 10 17  1  0  0  0  0
 10 18  1  0  0  0  0
 10 19  1  0  0  0  0
 11 20  1  0  0  0  0
 11 21  1  0  0  0  0
 11 22  1  0  0  0  0
  7 12  1  0  0  0  0
 12 23  1  0  0  0  0
M  END
>  <pdb_header>
CRYST1   99.248   99.250   99.244  90.00  90.00  90.00 P 1           1 


$$$$
