top5_centroid
  PyMOL2.3          3D                             0

 30 31  0  0  0  0  0  0  0  0999 V2000
  -19.8301   19.1858   28.1688 N   0  0  0  0  0  0  0  0  0  0  0  0
  -19.7685   19.7709   26.8209 C   0  0  0  0  0  0  0  0  0  0  0  0
  -21.2033   19.8194   26.2447 C   0  0  0  0  0  0  0  0  0  0  0  0
  -19.0499   16.8555   27.9180 N   0  0  0  0  0  0  0  0  0  0  0  0
  -19.6951   20.0447   29.3768 C   0  0  0  0  0  0  0  0  0  0  0  0
  -17.8751   17.2306   27.3639 N   0  0  0  0  0  0  0  0  0  0  0  0
  -18.1830   20.1363   29.6638 C   0  0  0  0  0  0  0  0  0  0  0  0
  -18.4711   15.0118   27.0826 N   0  0  0  0  0  0  0  0  0  0  0  0
  -19.9667   17.8122   28.3783 C   0  0  0  0  0  0  0  0  0  0  0  0
  -20.5284   14.9919   28.0737 N   0  0  0  0  0  0  0  0  0  0  0  0
  -17.5568   16.0134   26.8454 C   0  0  0  0  0  0  0  0  0  0  0  0
  -19.4480   15.6236   27.6572 C   0  0  0  0  0  0  0  0  0  0  0  0
  -21.4772   15.8012   28.6049 C   0  0  0  0  0  0  0  0  0  0  0  0
  -22.8186   15.2213   28.8866 C   0  0  0  0  0  0  0  0  0  0  0  0
  -21.2279   17.2193   28.5695 C   0  0  0  0  0  0  0  0  0  0  0  0
  -19.4371   20.8111   26.8562 H   0  0  0  0  0  0  0  0  0  0  0  0
  -19.0931   19.1400   26.2285 H   0  0  0  0  0  0  0  0  0  0  0  0
  -20.9884   20.3539   25.3103 H   0  0  0  0  0  0  0  0  0  0  0  0
  -21.7695   20.3495   27.0148 H   0  0  0  0  0  0  0  0  0  0  0  0
  -21.6299   18.8391   25.9978 H   0  0  0  0  0  0  0  0  0  0  0  0
  -19.9948   21.0527   29.0398 H   0  0  0  0  0  0  0  0  0  0  0  0
  -20.2026   19.6502   30.2624 H   0  0  0  0  0  0  0  0  0  0  0  0
  -17.8241   19.1096   29.8346 H   0  0  0  0  0  0  0  0  0  0  0  0
  -18.0635   20.7541   30.5669 H   0  0  0  0  0  0  0  0  0  0  0  0
  -17.5998   20.6538   28.8947 H   0  0  0  0  0  0  0  0  0  0  0  0
  -16.6611   15.7435   26.2972 H   0  0  0  0  0  0  0  0  0  0  0  0
  -22.6847   14.7436   29.8601 H   0  0  0  0  0  0  0  0  0  0  0  0
  -23.0257   14.5275   28.0642 H   0  0  0  0  0  0  0  0  0  0  0  0
  -23.5918   15.9719   29.0699 H   0  0  0  0  0  0  0  0  0  0  0  0
  -21.9838   17.9284   28.8731 H   0  0  0  0  0  0  0  0  0  0  0  0
  1  5  1  0  0  0  0
  1  9  1  0  0  0  0
  1  2  1  0  0  0  0
  2 16  1  0  0  0  0
  2 17  1  0  0  0  0
  2  3  1  0  0  0  0
  3 18  1  0  0  0  0
  3 19  1  0  0  0  0
  3 20  1  0  0  0  0
  4  6  1  0  0  0  0
  4 12  1  0  0  0  0
  5  7  1  0  0  0  0
  5 21  1  0  0  0  0
  5 22  1  0  0  0  0
  6 11  1  0  0  0  0
  7 23  1  0  0  0  0
  7 24  1  0  0  0  0
  7 25  1  0  0  0  0
  8 12  1  0  0  0  0
  4  9  1  0  0  0  0
  9 15  1  0  0  0  0
 10 13  1  0  0  0  0
  8 11  1  0  0  0  0
 11 26  1  0  0  0  0
 10 12  1  0  0  0  0
 13 14  1  0  0  0  0
 14 27  1  0  0  0  0
 14 28  1  0  0  0  0
 14 29  1  0  0  0  0
 13 15  1  0  0  0  0
 15 30  1  0  0  0  0
M  END
>  <pdb_header>
CRYST1   99.269   99.271   99.265  90.00  90.00  90.00 P 1           1 


$$$$
