top1_centroid
  PyMOL2.3          3D                             0

 23 24  0  0  0  0  0  0  0  0999 V2000
  -18.9797   14.6009   27.7058 N   0  0  0  0  0  0  0  0  0  0  0  0
  -18.9376   13.3607   28.3807 C   0  0  0  0  0  0  0  0  0  0  0  0
  -23.1823   17.2448   30.0266 O   0  0  0  0  0  0  0  0  0  0  0  0
  -19.5333   16.5498   26.9654 C   0  0  0  0  0  0  0  0  0  0  0  0
  -17.9482   15.0285   26.9077 N   0  0  0  0  0  0  0  0  0  0  0  0
  -24.5358   16.5889   28.5975 O   0  0  0  0  0  0  0  0  0  0  0  0
  -20.0242   15.4809   27.5799 C   0  0  0  0  0  0  0  0  0  0  0  0
  -18.2457   16.2752   26.5540 N   0  0  0  0  0  0  0  0  0  0  0  0
  -21.3029   15.5162   28.3302 C   0  0  0  0  0  0  0  0  0  0  0  0
  -22.2237   16.6265   27.8688 C   0  0  0  0  0  0  0  0  0  0  0  0
  -23.3727   16.8013   28.9077 C   0  0  0  0  0  0  0  0  0  0  0  0
  -21.5836   17.9884   27.5965 C   0  0  0  0  0  0  0  0  0  0  0  0
  -20.3416   17.8060   26.7004 C   0  0  0  0  0  0  0  0  0  0  0  0
  -18.1802   12.6412   28.0434 H   0  0  0  0  0  0  0  0  0  0  0  0
  -19.8354   12.7784   28.1593 H   0  0  0  0  0  0  0  0  0  0  0  0
  -18.9631   13.6681   29.4325 H   0  0  0  0  0  0  0  0  0  0  0  0
  -21.9754   14.6418   28.2590 H   0  0  0  0  0  0  0  0  0  0  0  0
  -20.9949   15.7185   29.3608 H   0  0  0  0  0  0  0  0  0  0  0  0
  -22.3485   18.6494   27.1635 H   0  0  0  0  0  0  0  0  0  0  0  0
  -21.2780   18.4810   28.5306 H   0  0  0  0  0  0  0  0  0  0  0  0
  -19.5461   18.5539   26.8382 H   0  0  0  0  0  0  0  0  0  0  0  0
  -20.5936   17.8690   25.6305 H   0  0  0  0  0  0  0  0  0  0  0  0
  -22.6166   16.4153   26.8721 H   0  0  0  0  0  0  0  0  0  0  0  0
  1  2  1  0  0  0  0
  1  5  1  0  0  0  0
  2 14  1  0  0  0  0
  2 15  1  0  0  0  0
  2 16  1  0  0  0  0
  4 13  1  0  0  0  0
  5  8  1  0  0  0  0
  1  7  1  0  0  0  0
  4  7  1  0  0  0  0
  4  8  1  0  0  0  0
  7  9  1  0  0  0  0
  9 10  1  0  0  0  0
  9 17  1  0  0  0  0
  9 18  1  0  0  0  0
 10 11  1  0  0  0  0
 10 23  1  0  0  0  0
  3 11  1  0  0  0  0
  6 11  1  0  0  0  0
 10 12  1  0  0  0  0
 12 19  1  0  0  0  0
 12 20  1  0  0  0  0
 12 13  1  0  0  0  0
 13 21  1  0  0  0  0
 13 22  1  0  0  0  0
M  END
>  <pdb_header>
CRYST1   99.106   99.108   99.102  90.00  90.00  90.00 P 1           1 


$$$$
