top2_centroid
  PyMOL2.3          3D                             0

 18 18  0  0  0  0  0  0  0  0999 V2000
  -17.9522   14.9708   28.3534 N   0  0  0  0  0  0  0  0  0  0  0  0
  -18.0349   16.1893   27.6787 C   0  0  0  0  0  0  0  0  0  0  0  0
  -18.9496   16.4314   26.9252 O   0  0  0  0  0  0  0  0  0  0  0  0
  -18.9434   13.8887   28.2231 C   0  0  0  0  0  0  0  0  0  0  0  0
  -15.7307   16.8206   28.5864 N   0  0  0  0  0  0  0  0  0  0  0  0
  -18.2606   12.5333   28.3747 C   0  0  0  0  0  0  0  0  0  0  0  0
  -15.0536   17.9164   28.7274 N   0  0  0  0  0  0  0  0  0  0  0  0
  -16.9203   17.0848   27.9215 C   0  0  0  0  0  0  0  0  0  0  0  0
  -15.6382   18.8773   27.9040 N   0  0  0  0  0  0  0  0  0  0  0  0
  -16.9165   18.3687   27.5091 C   0  0  0  0  0  0  0  0  0  0  0  0
  -17.0990   14.7165   28.8260 H   0  0  0  0  0  0  0  0  0  0  0  0
  -19.7181   14.0728   28.9819 H   0  0  0  0  0  0  0  0  0  0  0  0
  -19.3944   13.9839   27.2296 H   0  0  0  0  0  0  0  0  0  0  0  0
  -17.8495   12.3510   29.3817 H   0  0  0  0  0  0  0  0  0  0  0  0
  -18.9694   11.7464   28.0968 H   0  0  0  0  0  0  0  0  0  0  0  0
  -17.4660   12.4070   27.6432 H   0  0  0  0  0  0  0  0  0  0  0  0
  -15.1685   19.7610   27.7280 H   0  0  0  0  0  0  0  0  0  0  0  0
  -17.6180   19.0896   27.1114 H   0  0  0  0  0  0  0  0  0  0  0  0
  1  2  1  0  0  0  0
  1 11  1  0  0  0  0
  2  3  2  0  0  0  0
  2  8  1  0  0  0  0
  1  4  1  0  0  0  0
  4 12  1  0  0  0  0
  4 13  1  0  0  0  0
  5  7  1  0  0  0  0
  4  6  1  0  0  0  0
  6 14  1  0  0  0  0
  6 15  1  0  0  0  0
  6 16  1  0  0  0  0
  7  9  1  0  0  0  0
  5  8  1  0  0  0  0
  8 10  1  0  0  0  0
  9 10  1  0  0  0  0
  9 17  1  0  0  0  0
 10 18  1  0  0  0  0
M  END
>  <pdb_header>
CRYST1   99.354   99.356   99.350  90.00  90.00  90.00 P 1           1 


$$$$
