top5_centroid
  PyMOL2.3          3D                             0

 17 18  0  0  0  0  0  0  0  0999 V2000
  -20.5269   17.4210   26.8659 N   0  0  0  0  0  0  0  0  0  0  0  0
  -19.2792   14.0818   26.1226 C   0  0  0  0  0  0  0  0  0  0  0  0
  -20.1942   19.4370   27.7306 O   0  0  0  0  0  0  0  0  0  0  0  0
  -20.2163   15.0469   26.5351 C   0  0  0  0  0  0  0  0  0  0  0  0
  -19.7501   16.3585   26.6419 C   0  0  0  0  0  0  0  0  0  0  0  0
  -19.6709   18.4616   27.2737 C   0  0  0  0  0  0  0  0  0  0  0  0
  -18.2172   18.1134   27.0781 C   0  0  0  0  0  0  0  0  0  0  0  0
  -18.3853   16.6795   26.5858 C   0  0  0  0  0  0  0  0  0  0  0  0
  -17.4625   15.6868   26.3850 C   0  0  0  0  0  0  0  0  0  0  0  0
  -17.8958   14.3570   26.0811 C   0  0  0  0  0  0  0  0  0  0  0  0
  -19.7874   12.2897   25.6611 B   0  0  0  0  0  0  0  0  0  0  0  0
  -21.2963   14.9164   26.4643 H   0  0  0  0  0  0  0  0  0  0  0  0
  -21.5291   17.3327   26.9569 H   0  0  0  0  0  0  0  0  0  0  0  0
  -17.8594   18.7995   26.3111 H   0  0  0  0  0  0  0  0  0  0  0  0
  -17.6312   18.1960   28.0009 H   0  0  0  0  0  0  0  0  0  0  0  0
  -16.4342   15.9948   26.5277 H   0  0  0  0  0  0  0  0  0  0  0  0
  -17.1989   13.5546   25.9158 H   0  0  0  0  0  0  0  0  0  0  0  0
  1  6  1  0  0  0  0
  1 13  1  0  0  0  0
  2  4  1  0  0  0  0
  2 10  1  0  0  0  0
  4  5  1  0  0  0  0
  4 12  1  0  0  0  0
  1  5  1  0  0  0  0
  5  8  1  0  0  0  0
  3  6  1  0  0  0  0
  6  7  1  0  0  0  0
  7  8  1  0  0  0  0
  7 14  1  0  0  0  0
  7 15  1  0  0  0  0
  8  9  1  0  0  0  0
  9 10  1  0  0  0  0
  9 16  1  0  0  0  0
 10 17  1  0  0  0  0
  2 11  1  0  0  0  0
M  END
>  <pdb_header>
CRYST1   99.366   99.368   99.362  90.00  90.00  90.00 P 1           1 


$$$$
