top4_centroid
  PyMOL2.3          3D                             0

 24 24  0  0  0  0  0  0  0  0999 V2000
  -18.8859   13.5749   25.4518 N   0  0  0  0  0  0  0  0  0  0  0  0
  -19.2218   14.6092   26.3651 C   0  0  0  0  0  0  0  0  0  0  0  0
  -18.5346   15.6151   26.5220 O   0  0  0  0  0  0  0  0  0  0  0  0
  -20.7705   15.2058   28.0675 C   0  0  0  0  0  0  0  0  0  0  0  0
  -20.3316   14.3104   27.0352 O   0  0  0  0  0  0  0  0  0  0  0  0
  -22.0534   14.6918   28.6993 C   0  0  0  0  0  0  0  0  0  0  0  0
  -17.8742   11.5662   23.6802 O   0  0  0  0  0  0  0  0  0  0  0  0
  -17.7586   13.9273   24.5532 C   0  0  0  0  0  0  0  0  0  0  0  0
  -17.0135   12.5392   24.2228 C   0  0  0  0  0  0  0  0  0  0  0  0
  -18.9987   11.2606   24.4933 C   0  0  0  0  0  0  0  0  0  0  0  0
  -19.7955   12.5600   25.0681 C   0  0  0  0  0  0  0  0  0  0  0  0
  -20.0149   15.1737   28.8746 H   0  0  0  0  0  0  0  0  0  0  0  0
  -20.8754   16.1751   27.5763 H   0  0  0  0  0  0  0  0  0  0  0  0
  -21.8373   13.7733   29.2678 H   0  0  0  0  0  0  0  0  0  0  0  0
  -22.8049   14.4625   27.9349 H   0  0  0  0  0  0  0  0  0  0  0  0
  -22.5277   15.4126   29.3809 H   0  0  0  0  0  0  0  0  0  0  0  0
  -18.3049   14.4035   23.7255 H   0  0  0  0  0  0  0  0  0  0  0  0
  -17.0783   14.6021   25.0788 H   0  0  0  0  0  0  0  0  0  0  0  0
  -16.5702   12.1739   25.1534 H   0  0  0  0  0  0  0  0  0  0  0  0
  -16.1598   12.6875   23.5656 H   0  0  0  0  0  0  0  0  0  0  0  0
  -19.6257   10.5605   23.9146 H   0  0  0  0  0  0  0  0  0  0  0  0
  -18.6994   10.7979   25.4432 H   0  0  0  0  0  0  0  0  0  0  0  0
  -20.4405   12.2959   25.9031 H   0  0  0  0  0  0  0  0  0  0  0  0
  -20.4817   12.9395   24.3008 H   0  0  0  0  0  0  0  0  0  0  0  0
  1  8  1  0  0  0  0
  1 11  1  0  0  0  0
  1  2  1  0  0  0  0
  2  3  2  0  0  0  0
  4  5  1  0  0  0  0
  4 12  1  0  0  0  0
  4 13  1  0  0  0  0
  2  5  1  0  0  0  0
  4  6  1  0  0  0  0
  6 14  1  0  0  0  0
  6 15  1  0  0  0  0
  6 16  1  0  0  0  0
  7 10  1  0  0  0  0
  8  9  1  0  0  0  0
  8 17  1  0  0  0  0
  8 18  1  0  0  0  0
  7  9  1  0  0  0  0
  9 19  1  0  0  0  0
  9 20  1  0  0  0  0
 10 11  1  0  0  0  0
 10 21  1  0  0  0  0
 10 22  1  0  0  0  0
 11 23  1  0  0  0  0
 11 24  1  0  0  0  0
M  END
>  <pdb_header>
CRYST1   99.267   99.269   99.263  90.00  90.00  90.00 P 1           1 


$$$$
