top3_centroid
  PyMOL2.3          3D                             0

 24 24  0  0  0  0  0  0  0  0999 V2000
  -20.9540   15.0495   28.4714 N   0  0  0  0  0  0  0  0  0  0  0  0
  -19.6800   14.8867   27.8545 C   0  0  0  0  0  0  0  0  0  0  0  0
  -19.5727   14.5276   26.7256 O   0  0  0  0  0  0  0  0  0  0  0  0
  -17.3233   14.8801   28.3615 C   0  0  0  0  0  0  0  0  0  0  0  0
  -18.6095   15.2521   28.6360 O   0  0  0  0  0  0  0  0  0  0  0  0
  -17.1726   13.2948   28.6145 C   0  0  0  0  0  0  0  0  0  0  0  0
  -23.6043   15.5218   29.6242 O   0  0  0  0  0  0  0  0  0  0  0  0
  -22.1883   14.9506   27.6600 C   0  0  0  0  0  0  0  0  0  0  0  0
  -23.4480   14.6124   28.4937 C   0  0  0  0  0  0  0  0  0  0  0  0
  -22.5308   15.3865   30.5205 C   0  0  0  0  0  0  0  0  0  0  0  0
  -21.1670   15.6794   29.8223 C   0  0  0  0  0  0  0  0  0  0  0  0
  -17.1865   15.2557   27.3379 H   0  0  0  0  0  0  0  0  0  0  0  0
  -16.7261   15.4261   29.0995 H   0  0  0  0  0  0  0  0  0  0  0  0
  -17.9721   12.7484   28.0974 H   0  0  0  0  0  0  0  0  0  0  0  0
  -17.1659   13.0256   29.6739 H   0  0  0  0  0  0  0  0  0  0  0  0
  -16.1448   13.0078   28.3738 H   0  0  0  0  0  0  0  0  0  0  0  0
  -22.4456   15.9215   27.2287 H   0  0  0  0  0  0  0  0  0  0  0  0
  -22.0210   14.1968   26.8850 H   0  0  0  0  0  0  0  0  0  0  0  0
  -23.4283   13.5891   28.9112 H   0  0  0  0  0  0  0  0  0  0  0  0
  -24.2916   14.5901   27.7934 H   0  0  0  0  0  0  0  0  0  0  0  0
  -22.6680   16.0929   31.3466 H   0  0  0  0  0  0  0  0  0  0  0  0
  -22.4094   14.3718   30.9252 H   0  0  0  0  0  0  0  0  0  0  0  0
  -20.4315   15.3352   30.5618 H   0  0  0  0  0  0  0  0  0  0  0  0
  -21.0090   16.7487   29.6432 H   0  0  0  0  0  0  0  0  0  0  0  0
  1  8  1  0  0  0  0
  1 11  1  0  0  0  0
  1  2  1  0  0  0  0
  2  3  2  0  0  0  0
  4  5  1  0  0  0  0
  4 12  1  0  0  0  0
  4 13  1  0  0  0  0
  2  5  1  0  0  0  0
  4  6  1  0  0  0  0
  6 14  1  0  0  0  0
  6 15  1  0  0  0  0
  6 16  1  0  0  0  0
  7 10  1  0  0  0  0
  8  9  1  0  0  0  0
  8 17  1  0  0  0  0
  8 18  1  0  0  0  0
  7  9  1  0  0  0  0
  9 19  1  0  0  0  0
  9 20  1  0  0  0  0
 10 11  1  0  0  0  0
 10 21  1  0  0  0  0
 10 22  1  0  0  0  0
 11 23  1  0  0  0  0
 11 24  1  0  0  0  0
M  END
>  <pdb_header>
CRYST1   99.399   99.401   99.395  90.00  90.00  90.00 P 1           1 


$$$$
