top2_centroid
  PyMOL2.3          3D                             0

 23 24  0  0  0  0  0  0  0  0999 V2000
  -18.6694   15.6260   27.4330 N   0  0  0  0  0  0  0  0  0  0  0  0
  -19.1318   16.9918   27.2784 C   0  0  0  0  0  0  0  0  0  0  0  0
  -20.3378   17.2398   27.2243 O   0  0  0  0  0  0  0  0  0  0  0  0
  -17.3214   15.0994   27.1161 C   0  0  0  0  0  0  0  0  0  0  0  0
  -17.5354   20.2247   26.8088 N   0  0  0  0  0  0  0  0  0  0  0  0
  -17.4782   13.6232   26.9909 C   0  0  0  0  0  0  0  0  0  0  0  0
  -16.4531   19.4439   27.0923 N   0  0  0  0  0  0  0  0  0  0  0  0
  -18.9303   13.2793   27.2979 C   0  0  0  0  0  0  0  0  0  0  0  0
  -19.7234   14.5333   27.4423 C   0  0  0  0  0  0  0  0  0  0  0  0
  -18.2102   18.1481   27.1171 C   0  0  0  0  0  0  0  0  0  0  0  0
  -18.6674   19.4332   26.7808 C   0  0  0  0  0  0  0  0  0  0  0  0
  -16.8105   18.1523   27.1707 C   0  0  0  0  0  0  0  0  0  0  0  0
  -16.9607   15.6214   26.2197 H   0  0  0  0  0  0  0  0  0  0  0  0
  -16.6796   15.1240   28.0106 H   0  0  0  0  0  0  0  0  0  0  0  0
  -17.1561   13.3077   25.9933 H   0  0  0  0  0  0  0  0  0  0  0  0
  -16.8529   13.1176   27.7283 H   0  0  0  0  0  0  0  0  0  0  0  0
  -19.0231   12.7623   28.2658 H   0  0  0  0  0  0  0  0  0  0  0  0
  -19.3600   12.5908   26.5648 H   0  0  0  0  0  0  0  0  0  0  0  0
  -20.2052   14.6651   28.4115 H   0  0  0  0  0  0  0  0  0  0  0  0
  -20.5768   14.6782   26.7673 H   0  0  0  0  0  0  0  0  0  0  0  0
  -19.6056   19.9131   26.5224 H   0  0  0  0  0  0  0  0  0  0  0  0
  -17.5478   21.2204   26.9606 H   0  0  0  0  0  0  0  0  0  0  0  0
  -16.0926   17.3695   27.4054 H   0  0  0  0  0  0  0  0  0  0  0  0
  1  2  1  0  0  0  0
  2  3  2  0  0  0  0
  2 10  1  0  0  0  0
  1  4  1  0  0  0  0
  4 13  1  0  0  0  0
  4 14  1  0  0  0  0
  5  7  1  0  0  0  0
  5 22  1  0  0  0  0
  4  6  1  0  0  0  0
  6 15  1  0  0  0  0
  6 16  1  0  0  0  0
  7 12  1  0  0  0  0
  6  8  1  0  0  0  0
  8  9  1  0  0  0  0
  8 17  1  0  0  0  0
  8 18  1  0  0  0  0
  1  9  1  0  0  0  0
  9 19  1  0  0  0  0
  9 20  1  0  0  0  0
 10 11  1  0  0  0  0
 10 12  1  0  0  0  0
  5 11  1  0  0  0  0
 11 21  1  0  0  0  0
 12 23  1  0  0  0  0
M  END
>  <pdb_header>
CRYST1   99.268   99.270   99.264  90.00  90.00  90.00 P 1           1 


$$$$
