top3_centroid
  PyMOL2.3          3D                             0

 22 22  0  0  0  0  0  0  0  0999 V2000
  -17.9761   17.7073   27.4379 N   0  0  0  0  0  0  0  0  0  0  0  0
  -17.9152   13.4004   26.3616 C   0  0  0  0  0  0  0  0  0  0  0  0
  -18.3015   13.7275   25.0444 O   0  0  0  0  0  0  0  0  0  0  0  0
  -18.7727   14.1433   27.4562 C   0  0  0  0  0  0  0  0  0  0  0  0
  -19.1977   17.7376   27.9276 N   0  0  0  0  0  0  0  0  0  0  0  0
  -18.6627   15.6380   27.4705 C   0  0  0  0  0  0  0  0  0  0  0  0
  -17.5570   16.3406   27.1234 C   0  0  0  0  0  0  0  0  0  0  0  0
  -17.1706   18.9280   27.5044 C   0  0  0  0  0  0  0  0  0  0  0  0
  -17.2000   19.6374   26.1342 C   0  0  0  0  0  0  0  0  0  0  0  0
  -19.6492   16.4788   27.9580 C   0  0  0  0  0  0  0  0  0  0  0  0
  -17.8758   14.5668   24.7988 H   0  0  0  0  0  0  0  0  0  0  0  0
  -17.9882   12.3234   26.5585 H   0  0  0  0  0  0  0  0  0  0  0  0
  -16.8715   13.7173   26.5053 H   0  0  0  0  0  0  0  0  0  0  0  0
  -19.8053   13.8517   27.2165 H   0  0  0  0  0  0  0  0  0  0  0  0
  -18.5905   13.7987   28.4848 H   0  0  0  0  0  0  0  0  0  0  0  0
  -16.5447   16.0803   26.8685 H   0  0  0  0  0  0  0  0  0  0  0  0
  -17.5608   19.6036   28.2781 H   0  0  0  0  0  0  0  0  0  0  0  0
  -16.1882   18.5571   27.8001 H   0  0  0  0  0  0  0  0  0  0  0  0
  -16.8406   20.6561   26.3099 H   0  0  0  0  0  0  0  0  0  0  0  0
  -18.2233   19.7023   25.7345 H   0  0  0  0  0  0  0  0  0  0  0  0
  -16.5787   19.0981   25.4005 H   0  0  0  0  0  0  0  0  0  0  0  0
  -20.5600   16.2119   28.4727 H   0  0  0  0  0  0  0  0  0  0  0  0
  1  8  1  0  0  0  0
  2  4  1  0  0  0  0
  2 12  1  0  0  0  0
  2 13  1  0  0  0  0
  2  3  2  0  0  0  0
  3 11  1  0  0  0  0
  4  6  1  0  0  0  0
  4 14  1  0  0  0  0
  4 15  1  0  0  0  0
  1  5  1  0  0  0  0
  6  7  1  0  0  0  0
  6 10  1  0  0  0  0
  1  7  1  0  0  0  0
  7 16  1  0  0  0  0
  8  9  1  0  0  0  0
  8 17  1  0  0  0  0
  8 18  1  0  0  0  0
  9 19  1  0  0  0  0
  9 20  1  0  0  0  0
  9 21  1  0  0  0  0
  5 10  1  0  0  0  0
 10 22  1  0  0  0  0
M  END
>  <pdb_header>
CRYST1   99.291   99.293   99.288  90.00  90.00  90.00 P 1           1 


$$$$
