
     RDKit          3D

 25 26  0  0  0  0  0  0  0  0999 V2000
  -21.5504   11.1782   27.3639 O   0  0  0  0  0  0  0  0  0  0  0  0
  -21.2729   12.3660   27.5161 C   0  0  0  0  0  0  0  0  0  0  0  0
  -21.8713   13.0691   28.5332 N   0  0  0  0  0  0  0  0  0  0  0  0
  -21.5787   14.0550   28.5842 H   0  0  0  0  0  0  0  0  0  0  0  0
  -22.7910   12.6034   29.4556 C   0  0  0  0  0  0  0  0  0  0  0  0
  -23.3857   13.4221   30.3470 C   0  0  0  0  0  0  0  0  0  0  0  0
  -23.2987   14.4612   30.5218 H   0  0  0  0  0  0  0  0  0  0  0  0
  -24.2056   12.6154   31.0652 N   0  0  0  0  0  0  0  0  0  0  0  0
  -25.0771   12.9815   32.1517 C   0  0  0  0  0  0  0  0  0  0  0  0
  -24.9795   14.0509   32.3529 H   0  0  0  0  0  0  0  0  0  0  0  0
  -24.7876   12.4074   33.0354 H   0  0  0  0  0  0  0  0  0  0  0  0
  -26.1051   12.7487   31.8627 H   0  0  0  0  0  0  0  0  0  0  0  0
  -24.1454   11.3202   30.6557 N   0  0  0  0  0  0  0  0  0  0  0  0
  -23.2810   11.3159   29.6719 C   0  0  0  0  0  0  0  0  0  0  0  0
  -23.0092   10.4456   29.1328 H   0  0  0  0  0  0  0  0  0  0  0  0
  -20.3418   13.1107   26.6927 C   0  0  0  0  0  0  0  0  0  0  0  0
  -19.9989   14.3452   26.9643 N   0  0  0  0  0  0  0  0  0  0  0  0
  -19.1411   14.7310   26.0242 O   0  0  0  0  0  0  0  0  0  0  0  0
  -18.9319   13.7448   25.1463 C   0  0  0  0  0  0  0  0  0  0  0  0
  -18.0021   14.0173   24.0390 C   0  0  0  0  0  0  0  0  0  0  0  0
  -17.9113   13.1495   23.3787 H   0  0  0  0  0  0  0  0  0  0  0  0
  -17.0067   14.2572   24.4250 H   0  0  0  0  0  0  0  0  0  0  0  0
  -18.3530   14.8639   23.4417 H   0  0  0  0  0  0  0  0  0  0  0  0
  -19.6764   12.7018   25.5354 C   0  0  0  0  0  0  0  0  0  0  0  0
  -19.7470   11.7562   25.0637 H   0  0  0  0  0  0  0  0  0  0  0  0
  1  2  2  0
  2  3  1  0
  2 16  1  0
  3  4  1  0
  3  5  1  0
  5  6  2  0
  5 14  1  0
  6  7  1  0
  6  8  1  0
  8  9  1  0
  8 13  1  0
  9 10  1  0
  9 11  1  0
  9 12  1  0
 13 14  2  0
 14 15  1  0
 16 17  2  0
 16 24  1  0
 17 18  1  0
 18 19  1  0
 19 20  1  0
 19 24  2  0
 20 21  1  0
 20 22  1  0
 20 23  1  0
 24 25  1  0
M  END
$$$$
