top2_centroid
  PyMOL2.3          3D                             0

 29 30  0  0  0  0  0  0  0  0999 V2000
  -21.2017   18.4365   26.2282 N   0  0  0  0  0  0  0  0  0  0  0  0
  -22.5485   18.1630   26.0525 C   0  0  0  0  0  0  0  0  0  0  0  0
  -23.1428   17.1319   26.2912 O   0  0  0  0  0  0  0  0  0  0  0  0
  -20.2750   17.5418   26.7101 C   0  0  0  0  0  0  0  0  0  0  0  0
  -19.4404   15.7073   27.4467 N   0  0  0  0  0  0  0  0  0  0  0  0
  -20.6367   16.2723   27.0833 C   0  0  0  0  0  0  0  0  0  0  0  0
  -18.3681   16.5738   27.3459 N   0  0  0  0  0  0  0  0  0  0  0  0
  -19.2495   14.4326   28.0339 C   0  0  0  0  0  0  0  0  0  0  0  0
  -19.2977   13.1228   27.1392 C   0  0  0  0  0  0  0  0  0  0  0  0
  -18.8882   17.6954   26.9057 C   0  0  0  0  0  0  0  0  0  0  0  0
  -22.7771   19.6813   25.5843 C   0  0  0  0  0  0  0  0  0  0  0  0
  -24.3039   19.3913   25.1621 C   0  0  0  0  0  0  0  0  0  0  0  0
  -24.6400   20.6736   26.0006 C   0  0  0  0  0  0  0  0  0  0  0  0
  -23.4240   20.2560   26.8642 C   0  0  0  0  0  0  0  0  0  0  0  0
  -20.8797   19.3625   25.9678 H   0  0  0  0  0  0  0  0  0  0  0  0
  -21.4984   15.6406   27.2257 H   0  0  0  0  0  0  0  0  0  0  0  0
  -18.2215   14.4518   28.4226 H   0  0  0  0  0  0  0  0  0  0  0  0
  -19.9764   14.2324   28.8253 H   0  0  0  0  0  0  0  0  0  0  0  0
  -19.1999   12.2000   27.7187 H   0  0  0  0  0  0  0  0  0  0  0  0
  -20.2076   13.0294   26.5450 H   0  0  0  0  0  0  0  0  0  0  0  0
  -18.6231   13.2184   26.2756 H   0  0  0  0  0  0  0  0  0  0  0  0
  -18.2979   18.5891   26.8069 H   0  0  0  0  0  0  0  0  0  0  0  0
  -22.0671   20.3195   25.0593 H   0  0  0  0  0  0  0  0  0  0  0  0
  -24.8356   18.5158   25.5356 H   0  0  0  0  0  0  0  0  0  0  0  0
  -24.6308   19.3924   24.1091 H   0  0  0  0  0  0  0  0  0  0  0  0
  -25.6382   20.7282   26.4562 H   0  0  0  0  0  0  0  0  0  0  0  0
  -24.5755   21.6279   25.4778 H   0  0  0  0  0  0  0  0  0  0  0  0
  -23.5660   19.5233   27.6748 H   0  0  0  0  0  0  0  0  0  0  0  0
  -22.8401   21.0824   27.2635 H   0  0  0  0  0  0  0  0  0  0  0  0
  1  2  1  0  0  0  0
  1 15  1  0  0  0  0
  2  3  2  0  0  0  0
  2 11  1  0  0  0  0
  1  4  1  0  0  0  0
  5  6  1  0  0  0  0
  5  7  1  0  0  0  0
  4  6  1  0  0  0  0
  6 16  1  0  0  0  0
  7 10  1  0  0  0  0
  5  8  1  0  0  0  0
  8 17  1  0  0  0  0
  8 18  1  0  0  0  0
  8  9  1  0  0  0  0
  9 19  1  0  0  0  0
  9 20  1  0  0  0  0
  9 21  1  0  0  0  0
  4 10  1  0  0  0  0
 10 22  1  0  0  0  0
 11 12  1  0  0  0  0
 11 14  1  0  0  0  0
 11 23  1  0  0  0  0
 12 13  1  0  0  0  0
 12 24  1  0  0  0  0
 12 25  1  0  0  0  0
 13 14  1  0  0  0  0
 13 26  1  0  0  0  0
 13 27  1  0  0  0  0
 14 28  1  0  0  0  0
 14 29  1  0  0  0  0
M  END
>  <pdb_header>
CRYST1   99.207   99.209   99.203  90.00  90.00  90.00 P 1           1 


$$$$
