top5_centroid
  PyMOL2.3          3D                             0

 23 24  0  0  0  0  0  0  0  0999 V2000
  -18.9023   16.5361   27.5293 N   0  0  0  0  0  0  0  0  0  0  0  0
  -18.6129   17.8513   27.2648 C   0  0  0  0  0  0  0  0  0  0  0  0
  -17.4379   18.1527   27.0176 O   0  0  0  0  0  0  0  0  0  0  0  0
  -20.2310   15.9401   27.8022 C   0  0  0  0  0  0  0  0  0  0  0  0
  -20.6256   20.7464   26.7347 N   0  0  0  0  0  0  0  0  0  0  0  0
  -20.0389   14.4155   28.0059 C   0  0  0  0  0  0  0  0  0  0  0  0
  -21.6501   19.8841   27.1297 N   0  0  0  0  0  0  0  0  0  0  0  0
  -18.5202   14.1757   27.8831 C   0  0  0  0  0  0  0  0  0  0  0  0
  -17.8844   15.4462   27.4928 C   0  0  0  0  0  0  0  0  0  0  0  0
  -19.6664   18.8480   27.1630 C   0  0  0  0  0  0  0  0  0  0  0  0
  -19.4375   20.1427   26.7071 C   0  0  0  0  0  0  0  0  0  0  0  0
  -21.0489   18.7505   27.4676 C   0  0  0  0  0  0  0  0  0  0  0  0
  -20.5479   16.4279   28.7292 H   0  0  0  0  0  0  0  0  0  0  0  0
  -20.9684   16.1217   27.0050 H   0  0  0  0  0  0  0  0  0  0  0  0
  -20.3987   14.1432   29.0095 H   0  0  0  0  0  0  0  0  0  0  0  0
  -20.6212   13.8434   27.2718 H   0  0  0  0  0  0  0  0  0  0  0  0
  -18.2223   13.3420   27.2354 H   0  0  0  0  0  0  0  0  0  0  0  0
  -18.2231   13.9262   28.9115 H   0  0  0  0  0  0  0  0  0  0  0  0
  -17.5871   15.4940   26.4480 H   0  0  0  0  0  0  0  0  0  0  0  0
  -16.9610   15.6030   28.0721 H   0  0  0  0  0  0  0  0  0  0  0  0
  -18.4997   20.6098   26.4516 H   0  0  0  0  0  0  0  0  0  0  0  0
  -20.7921   21.7414   26.6438 H   0  0  0  0  0  0  0  0  0  0  0  0
  -21.6533   17.9175   27.8249 H   0  0  0  0  0  0  0  0  0  0  0  0
  1  2  1  0  0  0  0
  2  3  2  0  0  0  0
  2 10  1  0  0  0  0
  1  4  1  0  0  0  0
  4 13  1  0  0  0  0
  4 14  1  0  0  0  0
  5  7  1  0  0  0  0
  5 22  1  0  0  0  0
  4  6  1  0  0  0  0
  6 15  1  0  0  0  0
  6 16  1  0  0  0  0
  7 12  1  0  0  0  0
  6  8  1  0  0  0  0
  8  9  1  0  0  0  0
  8 17  1  0  0  0  0
  8 18  1  0  0  0  0
  1  9  1  0  0  0  0
  9 19  1  0  0  0  0
  9 20  1  0  0  0  0
 10 11  1  0  0  0  0
 10 12  1  0  0  0  0
  5 11  1  0  0  0  0
 11 21  1  0  0  0  0
 12 23  1  0  0  0  0
M  END
>  <pdb_header>
CRYST1   99.268   99.270   99.264  90.00  90.00  90.00 P 1           1 


$$$$
