top4_centroid
  PyMOL2.3          3D                             0

 23 24  0  0  0  0  0  0  0  0999 V2000
  -18.5545   19.4518   26.5341 N   0  0  0  0  0  0  0  0  0  0  0  0
  -17.5673   18.4712   26.6318 C   0  0  0  0  0  0  0  0  0  0  0  0
  -17.8866   17.3765   27.0148 O   0  0  0  0  0  0  0  0  0  0  0  0
  -18.4072   20.9084   26.0722 C   0  0  0  0  0  0  0  0  0  0  0  0
  -14.1270   18.5815   25.8976 N   0  0  0  0  0  0  0  0  0  0  0  0
  -19.8516   21.5368   26.0413 C   0  0  0  0  0  0  0  0  0  0  0  0
  -14.3660   19.9234   25.7075 N   0  0  0  0  0  0  0  0  0  0  0  0
  -20.8065   20.4488   26.6292 C   0  0  0  0  0  0  0  0  0  0  0  0
  -19.9109   19.3829   27.1692 C   0  0  0  0  0  0  0  0  0  0  0  0
  -16.1422   18.9064   26.4637 C   0  0  0  0  0  0  0  0  0  0  0  0
  -15.1929   17.9340   26.4610 C   0  0  0  0  0  0  0  0  0  0  0  0
  -15.5850   20.1247   26.0084 C   0  0  0  0  0  0  0  0  0  0  0  0
  -17.7612   21.4543   26.7773 H   0  0  0  0  0  0  0  0  0  0  0  0
  -17.9939   20.9888   25.0585 H   0  0  0  0  0  0  0  0  0  0  0  0
  -19.8714   22.3362   26.7990 H   0  0  0  0  0  0  0  0  0  0  0  0
  -20.2529   21.8643   25.0725 H   0  0  0  0  0  0  0  0  0  0  0  0
  -21.5625   20.0872   25.9144 H   0  0  0  0  0  0  0  0  0  0  0  0
  -21.3849   20.8502   27.4721 H   0  0  0  0  0  0  0  0  0  0  0  0
  -20.4044   18.4489   26.8865 H   0  0  0  0  0  0  0  0  0  0  0  0
  -19.8187   19.3322   28.2659 H   0  0  0  0  0  0  0  0  0  0  0  0
  -15.2753   16.8700   26.6270 H   0  0  0  0  0  0  0  0  0  0  0  0
  -13.2283   18.1855   25.6434 H   0  0  0  0  0  0  0  0  0  0  0  0
  -15.9970   21.0902   25.7431 H   0  0  0  0  0  0  0  0  0  0  0  0
  1  2  1  0  0  0  0
  2  3  2  0  0  0  0
  2 10  1  0  0  0  0
  1  4  1  0  0  0  0
  4 13  1  0  0  0  0
  4 14  1  0  0  0  0
  5  7  1  0  0  0  0
  5 22  1  0  0  0  0
  4  6  1  0  0  0  0
  6 15  1  0  0  0  0
  6 16  1  0  0  0  0
  7 12  1  0  0  0  0
  6  8  1  0  0  0  0
  8  9  1  0  0  0  0
  8 17  1  0  0  0  0
  8 18  1  0  0  0  0
  1  9  1  0  0  0  0
  9 19  1  0  0  0  0
  9 20  1  0  0  0  0
 10 11  1  0  0  0  0
 10 12  1  0  0  0  0
  5 11  1  0  0  0  0
 11 21  1  0  0  0  0
 12 23  1  0  0  0  0
M  END
>  <pdb_header>
CRYST1   99.227   99.228   99.223  90.00  90.00  90.00 P 1           1 


$$$$
