top3_centroid
  PyMOL2.3          3D                             0

 26 26  0  0  0  0  0  0  0  0999 V2000
  -16.1689   18.2683   27.9591 N   0  0  0  0  0  0  0  0  0  0  0  0
  -16.9267   16.9542   28.0306 C   0  0  0  0  0  0  0  0  0  0  0  0
  -14.6047   17.5118   29.5039 O   0  0  0  0  0  0  0  0  0  0  0  0
  -17.5992   16.7066   26.6733 C   0  0  0  0  0  0  0  0  0  0  0  0
  -16.5086   19.0853   30.1438 O   0  0  0  0  0  0  0  0  0  0  0  0
  -18.3837   15.3881   26.6296 C   0  0  0  0  0  0  0  0  0  0  0  0
  -18.0331   14.4745   25.6334 C   0  0  0  0  0  0  0  0  0  0  0  0
  -18.6345   13.2063   25.5873 C   0  0  0  0  0  0  0  0  0  0  0  0
  -19.5541   12.8055   26.4607 C   0  0  0  0  0  0  0  0  0  0  0  0
  -19.9096   13.6859   27.5303 C   0  0  0  0  0  0  0  0  0  0  0  0
  -19.2869   14.9362   27.6542 C   0  0  0  0  0  0  0  0  0  0  0  0
  -14.4018   20.0520   28.6421 C   0  0  0  0  0  0  0  0  0  0  0  0
  -20.1261   11.5697   26.2463 F   0  0  0  0  0  0  0  0  0  0  0  0
  -15.3979   18.6840   29.3188 S   0  0  0  0  0  0  0  0  0  0  0  0
  -15.3805   18.1242   27.3325 H   0  0  0  0  0  0  0  0  0  0  0  0
  -16.2487   16.1015   28.1630 H   0  0  0  0  0  0  0  0  0  0  0  0
  -17.6590   16.8427   28.8439 H   0  0  0  0  0  0  0  0  0  0  0  0
  -18.2852   17.5483   26.4958 H   0  0  0  0  0  0  0  0  0  0  0  0
  -16.9523   16.7871   25.7911 H   0  0  0  0  0  0  0  0  0  0  0  0
  -17.1977   14.6613   24.9619 H   0  0  0  0  0  0  0  0  0  0  0  0
  -18.3186   12.4910   24.8356 H   0  0  0  0  0  0  0  0  0  0  0  0
  -20.6688   13.3180   28.2209 H   0  0  0  0  0  0  0  0  0  0  0  0
  -19.5232   15.5507   28.5204 H   0  0  0  0  0  0  0  0  0  0  0  0
  -13.5566   20.0258   29.3450 H   0  0  0  0  0  0  0  0  0  0  0  0
  -15.0228   20.9433   28.7477 H   0  0  0  0  0  0  0  0  0  0  0  0
  -14.1198   19.7343   27.6293 H   0  0  0  0  0  0  0  0  0  0  0  0
  1  2  1  0  0  0  0
  1 15  1  0  0  0  0
  2  4  1  0  0  0  0
  2 16  1  0  0  0  0
  2 17  1  0  0  0  0
  3 14  1  0  0  0  0
  4  6  1  0  0  0  0
  4 18  1  0  0  0  0
  4 19  1  0  0  0  0
  6  7  1  0  0  0  0
  6 11  1  0  0  0  0
  7  8  1  0  0  0  0
  7 20  1  0  0  0  0
  8  9  1  0  0  0  0
  8 21  1  0  0  0  0
  9 10  1  0  0  0  0
  9 13  1  0  0  0  0
 10 11  1  0  0  0  0
 10 22  1  0  0  0  0
 11 23  1  0  0  0  0
 12 24  1  0  0  0  0
 12 25  1  0  0  0  0
 12 26  1  0  0  0  0
  1 14  1  0  0  0  0
  5 14  1  0  0  0  0
 12 14  1  0  0  0  0
M  END
>  <pdb_header>
CRYST1   99.341   99.343   99.337  90.00  90.00  90.00 P 1           1 


$$$$
