top3_centroid
  PyMOL2.3          3D                             0

 23 24  0  0  0  0  0  0  0  0999 V2000
  -18.9494   18.7678   30.2991 N   0  0  0  0  0  0  0  0  0  0  0  0
  -17.6041   18.2940   29.7424 C   0  0  0  0  0  0  0  0  0  0  0  0
  -17.6252   17.3794   28.5447 C   0  0  0  0  0  0  0  0  0  0  0  0
  -17.8941   16.0283   28.6238 N   0  0  0  0  0  0  0  0  0  0  0  0
  -17.7973   15.5256   27.3835 C   0  0  0  0  0  0  0  0  0  0  0  0
  -17.3756   16.5137   26.5710 N   0  0  0  0  0  0  0  0  0  0  0  0
  -17.6020   14.1314   27.0989 C   0  0  0  0  0  0  0  0  0  0  0  0
  -17.3329   17.6477   27.3220 N   0  0  0  0  0  0  0  0  0  0  0  0
  -17.5057   13.3573   28.2529 C   0  0  0  0  0  0  0  0  0  0  0  0
  -17.7867   13.8599   29.5617 C   0  0  0  0  0  0  0  0  0  0  0  0
  -17.9046   15.2626   29.7797 C   0  0  0  0  0  0  0  0  0  0  0  0
  -18.7911   19.9894   31.2532 C   0  0  0  0  0  0  0  0  0  0  0  0
  -19.5462   19.0062   29.4923 H   0  0  0  0  0  0  0  0  0  0  0  0
  -19.4811   17.9920   30.7099 H   0  0  0  0  0  0  0  0  0  0  0  0
  -17.0614   19.1987   29.4622 H   0  0  0  0  0  0  0  0  0  0  0  0
  -17.0573   17.9379   30.6238 H   0  0  0  0  0  0  0  0  0  0  0  0
  -17.3058   13.7505   26.1366 H   0  0  0  0  0  0  0  0  0  0  0  0
  -17.4596   12.2937   28.0869 H   0  0  0  0  0  0  0  0  0  0  0  0
  -17.8350   13.1452   30.3786 H   0  0  0  0  0  0  0  0  0  0  0  0
  -17.8456   15.7685   30.7379 H   0  0  0  0  0  0  0  0  0  0  0  0
  -19.7019   20.2163   31.8086 H   0  0  0  0  0  0  0  0  0  0  0  0
  -18.5024   20.9617   30.8544 H   0  0  0  0  0  0  0  0  0  0  0  0
  -18.1486   19.6227   32.0523 H   0  0  0  0  0  0  0  0  0  0  0  0
  1  2  1  0  0  0  0
  1 13  1  0  0  0  0
  1 14  1  0  0  0  0
  2  3  1  0  0  0  0
  2 15  1  0  0  0  0
  2 16  1  0  0  0  0
  3  4  1  0  0  0  0
  3  8  1  0  0  0  0
  4  5  1  0  0  0  0
  4 11  1  0  0  0  0
  5  7  1  0  0  0  0
  5  6  1  0  0  0  0
  7  9  1  0  0  0  0
  7 17  1  0  0  0  0
  6  8  1  0  0  0  0
  9 10  1  0  0  0  0
  9 18  1  0  0  0  0
 10 11  1  0  0  0  0
 10 19  1  0  0  0  0
 11 20  1  0  0  0  0
  1 12  1  0  0  0  0
 12 21  1  0  0  0  0
 12 22  1  0  0  0  0
 12 23  1  0  0  0  0
M  END
>  <pdb_header>
CRYST1   99.178   99.180   99.174  90.00  90.00  90.00 P 1           1 


$$$$
