top2_centroid
  PyMOL2.3          3D                             0

 17 18  0  0  0  0  0  0  0  0999 V2000
  -20.5537   12.4325   26.8557 N   0  0  0  0  0  0  0  0  0  0  0  0
  -17.9194   12.2715   24.2017 C   0  0  0  0  0  0  0  0  0  0  0  0
  -21.6556   13.4441   28.6137 O   0  0  0  0  0  0  0  0  0  0  0  0
  -18.9949   11.8295   24.9652 C   0  0  0  0  0  0  0  0  0  0  0  0
  -19.5206   12.6580   25.9419 C   0  0  0  0  0  0  0  0  0  0  0  0
  -20.7539   13.4052   27.7753 C   0  0  0  0  0  0  0  0  0  0  0  0
  -19.6591   14.3802   27.4951 C   0  0  0  0  0  0  0  0  0  0  0  0
  -18.9536   13.8239   26.2513 C   0  0  0  0  0  0  0  0  0  0  0  0
  -17.8163   14.3364   25.5731 C   0  0  0  0  0  0  0  0  0  0  0  0
  -17.2994   13.5540   24.4697 C   0  0  0  0  0  0  0  0  0  0  0  0
  -17.0790   10.9745   23.0951 B   0  0  0  0  0  0  0  0  0  0  0  0
  -19.4929   10.9038   24.6745 H   0  0  0  0  0  0  0  0  0  0  0  0
  -21.1178   11.5970   26.8374 H   0  0  0  0  0  0  0  0  0  0  0  0
  -20.1558   15.3374   27.2782 H   0  0  0  0  0  0  0  0  0  0  0  0
  -18.9935   14.5119   28.3476 H   0  0  0  0  0  0  0  0  0  0  0  0
  -17.2746   15.2300   25.8637 H   0  0  0  0  0  0  0  0  0  0  0  0
  -16.3784   13.8174   23.9654 H   0  0  0  0  0  0  0  0  0  0  0  0
  1  6  1  0  0  0  0
  1 13  1  0  0  0  0
  2  4  1  0  0  0  0
  2 10  1  0  0  0  0
  4  5  1  0  0  0  0
  4 12  1  0  0  0  0
  1  5  1  0  0  0  0
  5  8  1  0  0  0  0
  3  6  1  0  0  0  0
  6  7  1  0  0  0  0
  7  8  1  0  0  0  0
  7 14  1  0  0  0  0
  7 15  1  0  0  0  0
  8  9  1  0  0  0  0
  9 10  1  0  0  0  0
  9 16  1  0  0  0  0
 10 17  1  0  0  0  0
  2 11  1  0  0  0  0
M  END
>  <pdb_header>
CRYST1   99.467   99.469   99.463  90.00  90.00  90.00 P 1           1 


$$$$
