


 18 19  0  0  0  0  0  0  0  0999 V2000
  -14.0877    9.3240   21.1077 N   0  0  0  0  0  0  0  0  0  0  0  0
  -15.3367   10.0653   21.3347 C   0  0  0  0  0  0  0  0  0  0  0  0
  -16.4050    9.7051   20.7481 O   0  0  0  0  0  0  0  0  0  0  0  0
  -15.3500   11.2232   22.2401 N   0  0  0  0  0  0  0  0  0  0  0  0
  -16.5989   11.9644   22.4672 C   0  0  0  0  0  0  0  0  0  0  0  0
  -16.3413   13.1061   23.4370 C   0  0  0  0  0  0  0  0  0  0  0  0
  -17.5903   13.8474   23.6640 N   0  0  0  0  0  0  0  0  0  0  0  0
  -18.8259   13.4308   22.9856 C   0  0  0  0  0  0  0  0  0  0  0  0
  -14.1142   11.6399   22.9187 C   0  0  0  0  0  0  0  0  0  0  0  0
  -17.6035   15.0054   24.5695 C   0  0  0  0  0  0  0  0  0  0  0  0
  -16.5352   15.3656   25.1562 O   0  0  0  0  0  0  0  0  0  0  0  0
  -14.0788    8.5485   20.5012 H   0  0  0  0  0  0  0  0  0  0  0  0
  -13.2601    9.6031   21.5620 H   0  0  0  0  0  0  0  0  0  0  0  0
  -18.8949   15.7718   24.8042 C   0  0  0  0  0  0  0  0  0  0  0  0
  -19.0998   16.4750   26.0444 C   0  0  0  0  0  0  0  0  0  0  0  0
  -20.3234   17.2012   26.2668 C   0  0  0  0  0  0  0  0  0  0  0  0
  -20.5282   17.9043   27.5068 C   0  0  0  0  0  0  0  0  0  0  0  0
  -19.8468   15.7933   23.8536 O   0  0  0  0  0  0  0  0  0  0  0  0
  1  2  1  0  0  0
  1 12  1  0  0  0
  1 13  1  0  0  0
  2  3  2  0  0  0
  2  4  1  0  0  0
  4  5  1  0  0  0
  4  9  1  0  0  0
  5  6  1  0  0  0
  6  7  1  0  0  0
  7  8  1  0  0  0
  7 10  1  0  0  0
  8  9  1  0  0  0
 10 11  2  0  0  0
 10 14  1  0  0  0
 14 15  2  0  0  0
 14 18  1  0  0  0
 15 16  1  0  0  0
 16 17  2  0  0  0
 17 18  1  0  0  0
M  END
> <minimizedAffinity>
0.22709

> <CNNscore>
0.6844758391

> <CNNaffinity>
8.2492942810

$$$$
