


 18 18  0  0  0  0  0  0  0  0999 V2000
  -16.6016   16.6963   25.9608 C   0  0  0  0  0  0  0  0  0  0  0  0
  -17.4135   15.9287   25.0522 C   0  0  0  0  0  0  0  0  0  0  0  0
  -16.8503   14.7953   24.3650 C   0  0  0  0  0  0  0  0  0  0  0  0
  -17.6622   14.0277   23.4564 C   0  0  0  0  0  0  0  0  0  0  0  0
  -19.0374   14.3936   23.2348 C   0  0  0  0  0  0  0  0  0  0  0  0
  -15.2264   16.3305   26.1824 C   0  0  0  0  0  0  0  0  0  0  0  0
  -16.9543   12.6032   22.5928 S   0  0  0  0  0  0  0  0  0  0  0  0
  -18.0765   11.6492   22.1772 O   0  0  0  0  0  0  0  0  0  0  0  0
  -16.2047   13.0824   21.3475 O   0  0  0  0  0  0  0  0  0  0  0  0
  -15.8373   11.7640   23.6632 N   0  0  0  0  0  0  0  0  0  0  0  0
  -16.3368   11.4446   24.4931 H   0  0  0  0  0  0  0  0  0  0  0  0
  -15.0893   12.3998   23.9401 H   0  0  0  0  0  0  0  0  0  0  0  0
  -17.1961   17.8926   26.6860 C   0  0  0  0  0  0  0  0  0  0  0  0
  -20.9419   17.0593   27.5640 C   0  0  0  0  0  0  0  0  0  0  0  0
  -19.7091   17.4972   26.7900 C   0  0  0  0  0  0  0  0  0  0  0  0
  -19.8204   17.8877   25.5858 O   0  0  0  0  0  0  0  0  0  0  0  0
  -18.3883   17.4691   27.4345 N   0  0  0  0  0  0  0  0  0  0  0  0
  -18.3021   17.1666   28.3674 H   0  0  0  0  0  0  0  0  0  0  0  0
 14 15  1  0  0  0
 15 16  2  0  0  0
 15 17  1  0  0  0
 17 13  1  0  0  0
 17 18  1  0  0  0
 13  1  1  0  0  0
  1  2  1  0  0  0
  1  6  2  0  0  0
  2  3  2  0  0  0
  3  4  1  0  0  0
  4  5  2  0  0  0
  4  7  1  0  0  0
  5  6  1  0  0  0
  7  8  2  0  0  0
  7  9  2  0  0  0
  7 10  1  0  0  0
 10 11  1  0  0  0
 10 12  1  0  0  0
M  END
> <minimizedAffinity>
0.54466

> <CNNscore>
0.0733925253

> <CNNaffinity>
8.7339611053

$$$$
