


 14 14  0  0  0  0  0  0  0  0999 V2000
  -20.5265   14.8746   23.4889 Br  0  0  0  0  0  0  0  0  0  0  0  0
  -19.2424   15.5670   24.7978 C   0  0  0  0  0  0  0  0  0  0  0  0
  -17.8801   15.1000   24.7867 C   0  0  0  0  0  0  0  0  0  0  0  0
  -16.9366   15.6088   25.7485 C   0  0  0  0  0  0  0  0  0  0  0  0
  -15.5742   15.1419   25.7373 C   0  0  0  0  0  0  0  0  0  0  0  0
  -14.6307   15.6507   26.6991 C   0  0  0  0  0  0  0  0  0  0  0  0
  -19.6612   16.5427   25.7708 C   0  0  0  0  0  0  0  0  0  0  0  0
  -17.3496   16.5709   26.7078 O   0  0  0  0  0  0  0  0  0  0  0  0
  -16.8595   17.9016   26.6352 C   0  0  0  0  0  0  0  0  0  0  0  0
  -15.1321   14.1121   24.7104 C   0  0  0  0  0  0  0  0  0  0  0  0
  -14.4646   12.9446   25.4187 C   0  0  0  0  0  0  0  0  0  0  0  0
  -14.0850   11.7909   24.6829 O   0  0  0  0  0  0  0  0  0  0  0  0
  -14.2464   13.0008   26.6695 O   0  0  0  0  0  0  0  0  0  0  0  0
  -14.2459   11.7494   23.7607 H   0  0  0  0  0  0  0  0  0  0  0  0
  1  2  1  0  0  0
  2  3  2  0  0  0
  2  7  1  0  0  0
  3  4  1  0  0  0
  4  8  1  0  0  0
  4  5  2  0  0  0
  8  9  1  0  0  0
  5 10  1  0  0  0
  5  6  1  0  0  0
 10 11  1  0  0  0
 11 12  1  0  0  0
 11 13  2  0  0  0
 12 14  1  0  0  0
  6  7  2  0  0  0
M  END
> <minimizedAffinity>
0.58907

> <CNNscore>
0.0146974670

> <CNNaffinity>
4.8292288780

$$$$
