


 16 17  0  0  0  0  0  0  0  0999 V2000
  -16.2801   14.7006   24.1904 N   0  0  0  0  0  0  0  0  0  0  0  0
  -15.4475   15.2119   24.0702 H   0  0  0  0  0  0  0  0  0  0  0  0
  -16.7273   14.5235   26.9923 F   0  0  0  0  0  0  0  0  0  0  0  0
  -17.6135   15.2026   26.2695 C   0  0  0  0  0  0  0  0  0  0  0  0
  -18.7483   15.8149   26.9109 C   0  0  0  0  0  0  0  0  0  0  0  0
  -19.7079   16.5502   26.1283 C   0  0  0  0  0  0  0  0  0  0  0  0
  -20.8427   17.1625   26.7698 C   0  0  0  0  0  0  0  0  0  0  0  0
  -21.8023   17.8978   25.9871 C   0  0  0  0  0  0  0  0  0  0  0  0
  -17.4384   15.3255   24.8452 C   0  0  0  0  0  0  0  0  0  0  0  0
  -16.3651   13.3121   23.7153 C   0  0  0  0  0  0  0  0  0  0  0  0
  -17.8136   12.8527   23.7496 C   0  0  0  0  0  0  0  0  0  0  0  0
  -18.8589   13.7899   24.0708 C   0  0  0  0  0  0  0  0  0  0  0  0
  -20.2314   13.3546   24.1033 C   0  0  0  0  0  0  0  0  0  0  0  0
  -21.2423   14.2610   24.4140 N   0  0  0  0  0  0  0  0  0  0  0  0
  -18.1300   11.5252   23.4705 N   0  0  0  0  0  0  0  0  0  0  0  0
  -21.9600   14.8981   24.6330 H   0  0  0  0  0  0  0  0  0  0  0  0
  3  4  1  0  0  0
  4  5  1  0  0  0
  4  9  2  0  0  0
  5  6  2  0  0  0
  6  7  1  0  0  0
  7  8  2  0  0  0
  8  9  1  0  0  0
  9  1  1  0  0  0
  1 10  1  0  0  0
  1  2  1  0  0  0
 10 11  1  0  0  0
 11 12  1  0  0  0
 11 15  2  0  0  0
 12 13  2  0  0  0
 13 14  1  0  0  0
 14 15  1  0  0  0
 14 16  1  0  0  0
M  END
> <minimizedAffinity>
0.08071

> <CNNscore>
0.2144871950

> <CNNaffinity>
5.9746179581

$$$$
