


 13 14  0  0  0  0  0  0  0  0999 V2000
  -16.0941   15.0942   25.6633 O   0  0  0  0  0  0  0  0  0  0  0  0
  -17.3275   14.8922   25.4325 C   0  0  0  0  0  0  0  0  0  0  0  0
  -18.3429   15.4023   26.3652 N   0  0  0  0  0  0  0  0  0  0  0  0
  -17.9317   16.1459   27.5647 C   0  0  0  0  0  0  0  0  0  0  0  0
  -19.1644   16.5578   28.3528 C   0  0  0  0  0  0  0  0  0  0  0  0
  -18.7393   17.3268   29.5931 C   0  0  0  0  0  0  0  0  0  0  0  0
  -19.7695   15.1686   26.0983 C   0  0  0  0  0  0  0  0  0  0  0  0
  -17.7526   14.1232   24.1923 C   0  0  0  0  0  0  0  0  0  0  0  0
  -16.9637   13.0110   23.7289 C   0  0  0  0  0  0  0  0  0  0  0  0
  -17.3533   12.3064   22.5924 N   0  0  0  0  0  0  0  0  0  0  0  0
  -16.6163   11.2674   22.1595 N   0  0  0  0  0  0  0  0  0  0  0  0
  -18.9445   14.5067   23.4806 C   0  0  0  0  0  0  0  0  0  0  0  0
  -16.0739   10.5078   21.8464 H   0  0  0  0  0  0  0  0  0  0  0  0
  1  2  2  0  0  0
  2  3  1  0  0  0
  2  8  1  0  0  0
  3  4  1  0  0  0
  3  7  1  0  0  0
  4  5  1  0  0  0
  5  6  1  0  0  0
  6  7  1  0  0  0
  8  9  1  0  0  0
  8 12  2  0  0  0
  9 10  2  0  0  0
 10 11  1  0  0  0
 11 12  1  0  0  0
 11 13  1  0  0  0
M  END
> <minimizedAffinity>
0.03828

> <CNNscore>
0.9799571037

> <CNNaffinity>
7.1377668381

$$$$
