


 10 10  0  0  0  0  0  0  0  0999 V2000
  -18.2674   14.6094   21.7743 C   0  0  0  0  0  0  0  0  0  0  0  0
  -19.7009   14.1167   21.6617 C   0  0  0  0  0  0  0  0  0  0  0  0
  -20.0062   12.9701   20.8455 C   0  0  0  0  0  0  0  0  0  0  0  0
  -21.3645   12.5033   20.7388 C   0  0  0  0  0  0  0  0  0  0  0  0
  -21.7281   11.1380   19.7668 S   0  0  0  0  0  0  0  0  0  0  0  0
  -20.7538   14.7966   22.3712 C   0  0  0  0  0  0  0  0  0  0  0  0
  -20.4315   16.0068   23.2326 C   0  0  0  0  0  0  0  0  0  0  0  0
  -21.3710   16.6696   23.7741 O   0  0  0  0  0  0  0  0  0  0  0  0
  -19.0808   16.3967   23.4323 O   0  0  0  0  0  0  0  0  0  0  0  0
  -18.3881   15.9080   23.0331 H   0  0  0  0  0  0  0  0  0  0  0  0
  1  2  1  0  0  0
  2  3  1  0  0  0
  2  6  2  0  0  0
  3  4  2  0  0  0
  4  5  1  0  0  0
  5  6  1  0  0  0
  6  7  1  0  0  0
  7  8  2  0  0  0
  7  9  1  0  0  0
  9 10  1  0  0  0
M  END
> <minimizedAffinity>
0.34277

> <CNNscore>
0.0756861493

> <CNNaffinity>
5.3671331406

$$$$
