


 14 14  0  0  0  0  0  0  0  0999 V2000
  -20.2469   17.8322   27.4059 C   0  0  0  0  0  0  0  0  0  0  0  0
  -20.3840   17.2639   26.0028 C   0  0  0  0  0  0  0  0  0  0  0  0
  -19.4542   16.2684   25.5351 C   0  0  0  0  0  0  0  0  0  0  0  0
  -19.5841   15.7298   24.2058 C   0  0  0  0  0  0  0  0  0  0  0  0
  -20.5626   16.1518   23.4100 F   0  0  0  0  0  0  0  0  0  0  0  0
  -18.6543   14.7343   23.7381 C   0  0  0  0  0  0  0  0  0  0  0  0
  -18.7842   14.1958   22.4087 C   0  0  0  0  0  0  0  0  0  0  0  0
  -21.4437   17.7208   25.1411 C   0  0  0  0  0  0  0  0  0  0  0  0
  -17.6158   12.9447   21.8209 S   0  0  0  0  0  0  0  0  0  0  0  0
  -18.3884   11.7453   21.2670 O   0  0  0  0  0  0  0  0  0  0  0  0
  -16.7412   13.5424   20.7163 O   0  0  0  0  0  0  0  0  0  0  0  0
  -16.5968   12.4200   23.1566 N   0  0  0  0  0  0  0  0  0  0  0  0
  -17.1797   12.0217   23.8928 H   0  0  0  0  0  0  0  0  0  0  0  0
  -16.0819   13.2194   23.5258 H   0  0  0  0  0  0  0  0  0  0  0  0
  1  2  1  0  0  0
  2  3  1  0  0  0
  2  8  2  0  0  0
  3  4  2  0  0  0
  4  5  1  0  0  0
  4  6  1  0  0  0
  6  7  2  0  0  0
  7  8  1  0  0  0
  7  9  1  0  0  0
  9 10  2  0  0  0
  9 11  2  0  0  0
  9 12  1  0  0  0
 12 13  1  0  0  0
 12 14  1  0  0  0
M  END
> <minimizedAffinity>
0.31877

> <CNNscore>
0.1910235584

> <CNNaffinity>
7.9488644600

$$$$
