


 11 11  0  0  0  0  0  0  0  0999 V2000
  -16.4299   14.0342   24.1632 C   0  0  0  0  0  0  0  0  0  0  0  0
  -15.3981   13.1646   23.6598 C   0  0  0  0  0  0  0  0  0  0  0  0
  -15.6809   12.2734   22.6275 N   0  0  0  0  0  0  0  0  0  0  0  0
  -14.7170   11.4611   22.1572 N   0  0  0  0  0  0  0  0  0  0  0  0
  -17.7540   13.9823   23.5991 C   0  0  0  0  0  0  0  0  0  0  0  0
  -14.0086   10.8686   21.8161 H   0  0  0  0  0  0  0  0  0  0  0  0
  -16.9065   16.4417   27.2410 C   0  0  0  0  0  0  0  0  0  0  0  0
  -17.2049   15.5012   26.1515 N   0  0  0  0  0  0  0  0  0  0  0  0
  -18.5868   15.0550   25.9235 C   0  0  0  0  0  0  0  0  0  0  0  0
  -16.1213   15.0068   25.2899 C   0  0  0  0  0  0  0  0  0  0  0  0
  -14.9265   15.3925   25.4870 O   0  0  0  0  0  0  0  0  0  0  0  0
  7  8  1  0  0  0
  8  9  1  0  0  0
  8 10  1  0  0  0
 10 11  2  0  0  0
 10  1  1  0  0  0
  1  2  1  0  0  0
  1  5  2  0  0  0
  2  3  2  0  0  0
  3  4  1  0  0  0
  4  5  1  0  0  0
  4  6  1  0  0  0
M  END
> <minimizedAffinity>
0.00635

> <CNNscore>
0.9765414000

> <CNNaffinity>
6.9968113899

$$$$
