


 11 11  0  0  0  0  0  0  0  0999 V2000
  -19.1333   15.5181   24.3031 C   0  0  0  0  0  0  0  0  0  0  0  0
  -19.9089   14.8396   23.5593 O   0  0  0  0  0  0  0  0  0  0  0  0
  -17.7751   15.0320   24.5860 N   0  0  0  0  0  0  0  0  0  0  0  0
  -17.3141   13.7613   24.0084 C   0  0  0  0  0  0  0  0  0  0  0  0
  -15.8858   13.4914   24.4528 C   0  0  0  0  0  0  0  0  0  0  0  0
  -15.4404   12.2639   23.8949 O   0  0  0  0  0  0  0  0  0  0  0  0
  -14.1060   12.0117   24.3101 C   0  0  0  0  0  0  0  0  0  0  0  0
  -16.8779   15.8167   25.4464 C   0  0  0  0  0  0  0  0  0  0  0  0
  -19.5786   16.7456   24.8610 O   0  0  0  0  0  0  0  0  0  0  0  0
  -20.1862   17.8997   26.8770 C   0  0  0  0  0  0  0  0  0  0  0  0
  -20.4977   16.7414   25.9434 C   0  0  0  0  0  0  0  0  0  0  0  0
 10 11  1  0  0  0
 11  9  1  0  0  0
  9  1  1  0  0  0
  1  2  2  0  0  0
  1  3  1  0  0  0
  3  4  1  0  0  0
  3  8  1  0  0  0
  4  5  1  0  0  0
  5  6  1  0  0  0
  6  7  1  0  0  0
  7  8  1  0  0  0
M  END
> <minimizedAffinity>
0.01205

> <CNNscore>
0.9511851072

> <CNNaffinity>
8.0895137787

$$$$
