


 18 20  0  0  0  0  0  0  0  0999 V2000
  -17.7466   16.5543   26.8170 N   0  0  0  0  0  0  0  0  0  0  0  0
  -17.8369   15.3057   26.0466 C   0  0  0  0  0  0  0  0  0  0  0  0
  -16.4754   14.9738   25.4581 C   0  0  0  0  0  0  0  0  0  0  0  0
  -16.5657   13.7252   24.6875 N   0  0  0  0  0  0  0  0  0  0  0  0
  -17.8481   13.0135   24.5890 C   0  0  0  0  0  0  0  0  0  0  0  0
  -16.4642   17.2661   26.9155 C   0  0  0  0  0  0  0  0  0  0  0  0
  -15.3736   13.1884   24.0155 C   0  0  0  0  0  0  0  0  0  0  0  0
  -14.2649   13.8038   24.1006 O   0  0  0  0  0  0  0  0  0  0  0  0
  -23.7861   17.7595   27.5665 F   0  0  0  0  0  0  0  0  0  0  0  0
  -22.7076   17.2738   26.9584 C   0  0  0  0  0  0  0  0  0  0  0  0
  -21.4071   17.4455   27.5530 C   0  0  0  0  0  0  0  0  0  0  0  0
  -20.2392   16.9195   26.8946 C   0  0  0  0  0  0  0  0  0  0  0  0
  -18.9387   17.0911   27.4891 C   0  0  0  0  0  0  0  0  0  0  0  0
  -18.8062   17.7887   28.7421 C   0  0  0  0  0  0  0  0  0  0  0  0
  -22.8401   16.5763   25.7054 C   0  0  0  0  0  0  0  0  0  0  0  0
  -15.4670   11.8973   23.2188 C   0  0  0  0  0  0  0  0  0  0  0  0
  -15.7316   12.2216   21.7575 C   0  0  0  0  0  0  0  0  0  0  0  0
  -16.6035   11.0473   23.7629 C   0  0  0  0  0  0  0  0  0  0  0  0
  9 10  1  0  0  0
 10 11  1  0  0  0
 10 15  2  0  0  0
 11 12  2  0  0  0
 12 13  1  0  0  0
 13 14  2  0  0  0
 13  1  1  0  0  0
 14 15  1  0  0  0
  1  2  1  0  0  0
  1  6  1  0  0  0
  2  3  1  0  0  0
  3  4  1  0  0  0
  4  5  1  0  0  0
  4  7  1  0  0  0
  5  6  1  0  0  0
  7  8  2  0  0  0
  7 16  1  0  0  0
 16 17  1  0  0  0
 16 18  1  0  0  0
 17 18  1  0  0  0
M  END
> <minimizedAffinity>
0.63827

> <CNNscore>
0.3269044161

> <CNNaffinity>
6.9379768372

$$$$
