
 OpenBabel11261916433D

 16 18  0  0  0  0  0  0  0  0999 V2000
  -18.9115   12.0020   25.2903 C   0  0  0  0  0  0  0  0  0  0  0  0
  -19.0062   10.6105   25.0876 C   0  0  0  0  0  0  0  0  0  0  0  0
  -18.2310   10.1675   24.0953 N   0  0  0  0  0  0  0  0  0  0  0  0
  -17.6095   11.2784   23.6362 N   0  0  0  0  0  0  0  0  0  0  0  0
  -16.6612   11.3667   22.6219 C   0  0  0  0  0  0  0  0  0  0  0  0
  -16.1393   12.5533   22.2831 C   0  0  0  0  0  0  0  0  0  0  0  0
  -16.6600   13.7165   23.0515 C   0  0  0  0  0  0  0  0  0  0  0  0
  -17.5346   13.6746   24.0134 N   0  0  0  0  0  0  0  0  0  0  0  0
  -18.0178   12.4265   24.3245 C   0  0  0  0  0  0  0  0  0  0  0  0
  -19.0613   13.7729   26.8137 O   0  0  0  0  0  0  0  0  0  0  0  0
  -19.5936   12.7985   26.2913 C   0  0  0  0  0  0  0  0  0  0  0  0
  -20.8754   12.3757   26.5825 N   0  0  0  0  0  0  0  0  0  0  0  0
  -21.2160   11.5532   26.0869 H   0  0  0  0  0  0  0  0  0  0  0  0
  -21.7181   13.0193   27.5323 C   0  0  0  0  0  0  0  0  0  0  0  0
  -23.2051   12.7893   27.5229 C   0  0  0  0  0  0  0  0  0  0  0  0
  -22.3656   12.2232   28.6301 C   0  0  0  0  0  0  0  0  0  0  0  0
  1  2  1  0  0  0  0
  1  9  2  0  0  0  0
  2  3  2  0  0  0  0
  3  4  1  0  0  0  0
  4  5  1  0  0  0  0
  4  9  1  0  0  0  0
  5  6  2  0  0  0  0
  6  7  1  0  0  0  0
  7  8  2  0  0  0  0
  8  9  1  0  0  0  0
 10 11  2  0  0  0  0
 11 12  1  0  0  0  0
 11  1  1  0  0  0  0
 12 14  1  0  0  0  0
 12 13  1  0  0  0  0
 14 15  1  0  0  0  0
 14 16  1  0  0  0  0
 15 16  1  0  0  0  0
M  END
>  <minimizedAffinity>
-5.87377

$$$$
