
 OpenBabel11261916433D

 18 20  0  0  0  0  0  0  0  0999 V2000
  -22.3645   12.1979   28.3826 C   0  0  0  0  0  0  0  0  0  0  0  0
  -23.0756   11.3860   27.5001 C   0  0  0  0  0  0  0  0  0  0  0  0
  -22.5967   11.1342   26.2069 C   0  0  0  0  0  0  0  0  0  0  0  0
  -21.3748   11.7011   25.7954 C   0  0  0  0  0  0  0  0  0  0  0  0
  -20.7610   11.5294   24.5656 N   0  0  0  0  0  0  0  0  0  0  0  0
  -19.6428   12.2027   24.5418 C   0  0  0  0  0  0  0  0  0  0  0  0
  -19.2515   13.0979   25.9371 S   0  0  0  0  0  0  0  0  0  0  0  0
  -20.6813   12.5124   26.6954 C   0  0  0  0  0  0  0  0  0  0  0  0
  -21.1463   12.7630   27.9969 C   0  0  0  0  0  0  0  0  0  0  0  0
  -18.7031   12.3168   23.5594 N   0  0  0  0  0  0  0  0  0  0  0  0
  -17.8242   11.3138   23.2496 C   0  0  0  0  0  0  0  0  0  0  0  0
  -17.7230   10.2244   23.7915 O   0  0  0  0  0  0  0  0  0  0  0  0
  -18.6224   13.2196   23.1250 H   0  0  0  0  0  0  0  0  0  0  0  0
  -16.8580   11.6343   22.1487 C   0  0  0  0  0  0  0  0  0  0  0  0
  -15.6305   12.5021   22.3020 C   0  0  0  0  0  0  0  0  0  0  0  0
  -15.4806   11.0165   22.1323 C   0  0  0  0  0  0  0  0  0  0  0  0
  -24.2122   12.9552   29.6475 C   0  0  0  0  0  0  0  0  0  0  0  0
  -22.9233   12.3472   29.6246 O   0  0  0  0  0  0  0  0  0  0  0  0
  1  2  1  0  0  0  0
  1  9  2  0  0  0  0
  2  3  2  0  0  0  0
  3  4  1  0  0  0  0
  4  5  1  0  0  0  0
  4  8  2  0  0  0  0
  5  6  2  0  0  0  0
  6 10  1  0  0  0  0
  6  7  1  0  0  0  0
  7  8  1  0  0  0  0
  8  9  1  0  0  0  0
 10 11  1  0  0  0  0
 10 13  1  0  0  0  0
 11 12  2  0  0  0  0
 11 14  1  0  0  0  0
 14 15  1  0  0  0  0
 14 16  1  0  0  0  0
 15 16  1  0  0  0  0
 17 18  1  0  0  0  0
 18  1  1  0  0  0  0
M  END
>  <minimizedAffinity>
-7.89816

$$$$
