
 OpenBabel11261916453D

 12 12  0  0  0  0  0  0  0  0999 V2000
  -23.0986   13.3547   28.7729 C   0  0  0  0  0  0  0  0  0  0  0  0
  -22.1795   12.8192   27.7086 C   0  0  0  0  0  0  0  0  0  0  0  0
  -20.8482   12.9589   27.8228 C   0  0  0  0  0  0  0  0  0  0  0  0
  -19.9534   12.4318   26.8279 C   0  0  0  0  0  0  0  0  0  0  0  0
  -20.4060   11.8057   25.7340 C   0  0  0  0  0  0  0  0  0  0  0  0
  -19.5996   11.2592   24.7476 N   0  0  0  0  0  0  0  0  0  0  0  0
  -21.9128   11.6998   25.5471 C   0  0  0  0  0  0  0  0  0  0  0  0
  -22.3433   11.2145   24.4978 O   0  0  0  0  0  0  0  0  0  0  0  0
  -22.7164   12.1802   26.5875 N   0  0  0  0  0  0  0  0  0  0  0  0
  -24.1566   12.0034   26.4590 C   0  0  0  0  0  0  0  0  0  0  0  0
  -18.7306   11.7621   24.6075 H   0  0  0  0  0  0  0  0  0  0  0  0
  -20.1376   11.1308   23.8866 H   0  0  0  0  0  0  0  0  0  0  0  0
  1  2  1  0  0  0  0
  2  3  2  0  0  0  0
  2  9  1  0  0  0  0
  3  4  1  0  0  0  0
  4  5  2  0  0  0  0
  5  6  1  0  0  0  0
  5  7  1  0  0  0  0
  6 11  1  0  0  0  0
  6 12  1  0  0  0  0
  7  8  2  0  0  0  0
  7  9  1  0  0  0  0
  9 10  1  0  0  0  0
M  END
>  <minimizedAffinity>
-5.54420

$$$$
