
 OpenBabel11261916443D

 18 19  0  0  0  0  0  0  0  0999 V2000
  -14.7666   16.4032   25.0718 N   0  0  0  0  0  0  0  0  0  0  0  0
  -15.6849   16.7678   25.9994 C   0  0  0  0  0  0  0  0  0  0  0  0
  -15.6424   17.9005   26.4663 O   0  0  0  0  0  0  0  0  0  0  0  0
  -16.6112   15.8174   26.3393 N   0  0  0  0  0  0  0  0  0  0  0  0
  -17.5882   16.1066   27.3971 C   0  0  0  0  0  0  0  0  0  0  0  0
  -19.0287   15.9376   26.8898 C   0  0  0  0  0  0  0  0  0  0  0  0
  -19.2140   14.6299   26.2426 N   0  0  0  0  0  0  0  0  0  0  0  0
  -18.2472   14.3573   25.1715 C   0  0  0  0  0  0  0  0  0  0  0  0
  -16.8007   14.5286   25.6659 C   0  0  0  0  0  0  0  0  0  0  0  0
  -20.1119   13.7131   26.8021 C   0  0  0  0  0  0  0  0  0  0  0  0
  -20.6888   13.9764   27.8594 O   0  0  0  0  0  0  0  0  0  0  0  0
  -14.0706   17.1242   24.9295 H   0  0  0  0  0  0  0  0  0  0  0  0
  -14.3695   15.4818   25.1776 H   0  0  0  0  0  0  0  0  0  0  0  0
  -20.3285   12.4307   26.1501 C   0  0  0  0  0  0  0  0  0  0  0  0
  -19.4076   11.4958   25.7067 C   0  0  0  0  0  0  0  0  0  0  0  0
  -20.1422   10.4230   25.1482 C   0  0  0  0  0  0  0  0  0  0  0  0
  -21.4673   10.7385   25.3251 C   0  0  0  0  0  0  0  0  0  0  0  0
  -21.5905   11.9347   25.9538 O   0  0  0  0  0  0  0  0  0  0  0  0
  1  2  1  0  0  0  0
  1 12  1  0  0  0  0
  1 13  1  0  0  0  0
  2  3  2  0  0  0  0
  2  4  1  0  0  0  0
  4  5  1  0  0  0  0
  4  9  1  0  0  0  0
  5  6  1  0  0  0  0
  6  7  1  0  0  0  0
  7  8  1  0  0  0  0
  7 10  1  0  0  0  0
  8  9  1  0  0  0  0
 10 11  2  0  0  0  0
 10 14  1  0  0  0  0
 14 15  2  0  0  0  0
 14 18  1  0  0  0  0
 15 16  1  0  0  0  0
 16 17  2  0  0  0  0
 17 18  1  0  0  0  0
M  END
>  <minimizedAffinity>
-3.49603

$$$$
