
 OpenBabel11261916433D

 14 15  0  0  0  0  0  0  0  0999 V2000
  -17.0693   12.0395   22.9636 C   0  0  0  0  0  0  0  0  0  0  0  0
  -17.3245   10.6612   23.1383 C   0  0  0  0  0  0  0  0  0  0  0  0
  -18.1502   10.4119   24.1561 N   0  0  0  0  0  0  0  0  0  0  0  0
  -18.4053   11.6296   24.6686 N   0  0  0  0  0  0  0  0  0  0  0  0
  -17.8140   12.6397   23.9617 C   0  0  0  0  0  0  0  0  0  0  0  0
  -19.1716   11.7711   25.8878 C   0  0  0  0  0  0  0  0  0  0  0  0
  -19.1615   13.1740   26.4927 C   0  0  0  0  0  0  0  0  0  0  0  0
  -20.3433   13.1320   27.4491 C   0  0  0  0  0  0  0  0  0  0  0  0
  -21.4096   12.3473   26.6944 C   0  0  0  0  0  0  0  0  0  0  0  0
  -20.6600   11.4313   25.7257 C   0  0  0  0  0  0  0  0  0  0  0  0
  -15.2538   13.7234   22.5354 C   0  0  0  0  0  0  0  0  0  0  0  0
  -16.1805   12.6688   21.9444 C   0  0  1  0  0  0  0  0  0  0  0  0
  -15.3826   11.6859   21.2841 O   0  0  0  0  0  0  0  0  0  0  0  0
  -14.9629   11.1516   21.9785 H   0  0  0  0  0  0  0  0  0  0  0  0
  1  2  1  0  0  0  0
  1  5  2  0  0  0  0
  2  3  2  0  0  0  0
  3  4  1  0  0  0  0
  4  5  1  0  0  0  0
  4  6  1  0  0  0  0
  6  7  1  0  0  0  0
  6 10  1  0  0  0  0
  7  8  1  0  0  0  0
  8  9  1  0  0  0  0
  9 10  1  0  0  0  0
 12 11  1  1  0  0  0
 12 13  1  0  0  0  0
 12  1  1  0  0  0  0
 13 14  1  0  0  0  0
M  END
>  <minimizedAffinity>
-6.84565

$$$$
