
 OpenBabel11261916453D

 11 11  0  0  0  0  0  0  0  0999 V2000
  -19.3527   11.3954   24.9705 C   0  0  0  0  0  0  0  0  0  0  0  0
  -18.7885   10.2549   24.6267 N   0  0  0  0  0  0  0  0  0  0  0  0
  -17.7413   10.4396   23.7460 N   0  0  0  0  0  0  0  0  0  0  0  0
  -17.5423   11.7051   23.4554 C   0  0  0  0  0  0  0  0  0  0  0  0
  -16.5818   12.1582   22.6280 N   0  0  0  0  0  0  0  0  0  0  0  0
  -18.6383   12.7753   24.2325 S   0  0  0  0  0  0  0  0  0  0  0  0
  -16.1636   11.4639   22.0184 H   0  0  0  0  0  0  0  0  0  0  0  0
  -16.7170   13.0639   22.1963 H   0  0  0  0  0  0  0  0  0  0  0  0
  -20.4645   11.5315   25.9553 C   0  0  0  0  0  0  0  0  0  0  0  0
  -22.7081   11.2532   25.3011 C   0  0  0  0  0  0  0  0  0  0  0  0
  -21.4888   10.5938   25.6151 O   0  0  0  0  0  0  0  0  0  0  0  0
  1  2  2  0  0  0  0
  1  6  1  0  0  0  0
  2  3  1  0  0  0  0
  3  4  2  0  0  0  0
  4  5  1  0  0  0  0
  4  6  1  0  0  0  0
  5  7  1  0  0  0  0
  5  8  1  0  0  0  0
  9  1  1  0  0  0  0
 10 11  1  0  0  0  0
 11  9  1  0  0  0  0
M  END
>  <minimizedAffinity>
-4.65868

$$$$
