
 OpenBabel11261916433D

 14 15  0  0  0  0  0  0  0  0999 V2000
  -16.3310   13.5936   22.9209 C   0  0  0  0  0  0  0  0  0  0  0  0
  -17.1229   12.4647   23.3268 N   0  0  0  0  0  0  0  0  0  0  0  0
  -16.7623   11.2096   22.9893 N   0  0  0  0  0  0  0  0  0  0  0  0
  -17.6359   10.3715   23.5428 N   0  0  0  0  0  0  0  0  0  0  0  0
  -18.5551   11.1196   24.2097 C   0  0  0  0  0  0  0  0  0  0  0  0
  -19.6660   10.5970   25.0306 C   0  0  0  0  0  0  0  0  0  0  0  0
  -20.6356   11.7429   25.4051 C   0  0  0  0  0  0  0  0  0  0  0  0
  -19.9220   13.0663   25.8019 C   0  0  2  0  0  0  0  0  0  0  0  0
  -19.0116   13.5885   24.6564 C   0  0  0  0  0  0  0  0  0  0  0  0
  -18.2629   12.4543   24.0683 C   0  0  0  0  0  0  0  0  0  0  0  0
  -19.1244   12.9234   27.0938 C   0  0  0  0  0  0  0  0  0  0  0  0
  -17.9203   13.0926   27.1965 O   0  0  0  0  0  0  0  0  0  0  0  0
  -19.8932   12.6446   28.1704 O   0  0  0  0  0  0  0  0  0  0  0  0
  -20.8505   12.5973   27.9951 H   0  0  0  0  0  0  0  0  0  0  0  0
  1  2  1  0  0  0  0
  2  3  1  0  0  0  0
  2 10  1  0  0  0  0
  3  4  2  0  0  0  0
  4  5  1  0  0  0  0
  5  6  1  0  0  0  0
  5 10  2  0  0  0  0
  6  7  1  0  0  0  0
  7  8  1  0  0  0  0
  8  9  1  0  0  0  0
  8 11  1  1  0  0  0
  9 10  1  0  0  0  0
 11 12  2  0  0  0  0
 11 13  1  0  0  0  0
 13 14  1  0  0  0  0
M  END
>  <minimizedAffinity>
-5.58843

$$$$
