
 OpenBabel11261916453D

 12 13  0  0  0  0  0  0  0  0999 V2000
  -17.2149   10.7174   22.6216 O   0  0  0  0  0  0  0  0  0  0  0  0
  -17.8034   11.3375   23.4914 C   0  0  0  0  0  0  0  0  0  0  0  0
  -17.5629   12.7961   23.8986 C   0  0  0  0  0  0  0  0  0  0  0  0
  -18.5665   12.9859   24.9974 C   0  0  0  0  0  0  0  0  0  0  0  0
  -19.2769   11.8007   25.1844 C   0  0  0  0  0  0  0  0  0  0  0  0
  -20.2712   11.6708   26.1289 C   0  0  0  0  0  0  0  0  0  0  0  0
  -20.5474   12.7944   26.9095 C   0  0  0  0  0  0  0  0  0  0  0  0
  -21.9009   12.6978   28.2290 Br  0  0  0  0  0  0  0  0  0  0  0  0
  -19.8403   13.9992   26.7358 C   0  0  0  0  0  0  0  0  0  0  0  0
  -18.8353   14.1014   25.7679 C   0  0  0  0  0  0  0  0  0  0  0  0
  -18.8215   10.8397   24.2961 N   0  0  0  0  0  0  0  0  0  0  0  0
  -19.1634    9.8935   24.2192 H   0  0  0  0  0  0  0  0  0  0  0  0
  1  2  2  0  0  0  0
  2  3  1  0  0  0  0
  2 11  1  0  0  0  0
  3  4  1  0  0  0  0
  4  5  2  0  0  0  0
  4 10  1  0  0  0  0
  5  6  1  0  0  0  0
  5 11  1  0  0  0  0
  6  7  2  0  0  0  0
  7  8  1  0  0  0  0
  7  9  1  0  0  0  0
  9 10  2  0  0  0  0
 11 12  1  0  0  0  0
M  END
>  <minimizedAffinity>
-6.26168

$$$$
