
 OpenBabel11261916453D

 15 15  0  0  0  0  0  0  0  0999 V2000
  -21.0686   11.9644   26.1696 C   0  0  0  0  0  0  0  0  0  0  0  0
  -20.9913   12.9672   27.0610 N   0  0  0  0  0  0  0  0  0  0  0  0
  -19.9000   13.7611   26.9980 C   0  0  0  0  0  0  0  0  0  0  0  0
  -18.8761   13.6072   26.0905 C   0  0  0  0  0  0  0  0  0  0  0  0
  -17.5531   14.6970   26.1529 Cl  0  0  0  0  0  0  0  0  0  0  0  0
  -19.0473   12.5552   25.2120 C   0  0  0  0  0  0  0  0  0  0  0  0
  -20.1351   11.7207   25.2316 N   0  0  0  0  0  0  0  0  0  0  0  0
  -18.0418   12.2237   24.1429 C   0  0  0  0  0  0  0  0  0  0  0  0
  -17.4475   13.0463   23.4612 O   0  0  0  0  0  0  0  0  0  0  0  0
  -17.8088   10.8849   23.9533 N   0  0  0  0  0  0  0  0  0  0  0  0
  -18.2969   10.1968   24.5141 H   0  0  0  0  0  0  0  0  0  0  0  0
  -17.1440   10.5974   23.2496 H   0  0  0  0  0  0  0  0  0  0  0  0
  -22.9909   11.2159   27.6005 C   0  0  0  0  0  0  0  0  0  0  0  0
  -22.2767   11.0578   26.2602 C   0  0  0  0  0  0  0  0  0  0  0  0
  -23.2312   11.2997   25.0915 C   0  0  0  0  0  0  0  0  0  0  0  0
  1  2  1  0  0  0  0
  1  7  2  0  0  0  0
  2  3  2  0  0  0  0
  3  4  1  0  0  0  0
  4  5  1  0  0  0  0
  4  6  2  0  0  0  0
  6  7  1  0  0  0  0
  6  8  1  0  0  0  0
  8  9  2  0  0  0  0
  8 10  1  0  0  0  0
 10 11  1  0  0  0  0
 10 12  1  0  0  0  0
 13 14  1  0  0  0  0
 14 15  1  0  0  0  0
 14  1  1  0  0  0  0
M  END
>  <minimizedAffinity>
-6.32035

$$$$
