
 OpenBabel11261916443D

 11 12  0  0  0  0  0  0  0  0999 V2000
  -14.8421   14.2067   22.2610 Br  0  0  0  0  0  0  0  0  0  0  0  0
  -16.0074   12.7394   22.5962 C   0  0  0  0  0  0  0  0  0  0  0  0
  -15.7242   11.5536   21.9337 C   0  0  0  0  0  0  0  0  0  0  0  0
  -16.5590   10.4883   22.1697 C   0  0  0  0  0  0  0  0  0  0  0  0
  -17.6196   10.5407   22.9988 N   0  0  0  0  0  0  0  0  0  0  0  0
  -17.9002   11.6766   23.6387 C   0  0  0  0  0  0  0  0  0  0  0  0
  -18.9640   11.6678   24.4436 N   0  0  0  0  0  0  0  0  0  0  0  0
  -19.2972   12.7898   25.1144 C   0  0  0  0  0  0  0  0  0  0  0  0
  -18.5968   13.9707   25.0233 C   0  0  0  0  0  0  0  0  0  0  0  0
  -17.4881   13.9917   24.1909 C   0  0  0  0  0  0  0  0  0  0  0  0
  -17.1129   12.8317   23.4724 C   0  0  0  0  0  0  0  0  0  0  0  0
  1  2  1  0  0  0  0
  2  3  2  0  0  0  0
  2 11  1  0  0  0  0
  3  4  1  0  0  0  0
  4  5  2  0  0  0  0
  5  6  1  0  0  0  0
  6  7  2  0  0  0  0
  6 11  1  0  0  0  0
  7  8  1  0  0  0  0
  8  9  2  0  0  0  0
  9 10  1  0  0  0  0
 10 11  2  0  0  0  0
M  END
>  <minimizedAffinity>
-5.01618

$$$$
