
 OpenBabel11261916453D

 15 15  0  0  0  0  0  0  0  0999 V2000
  -18.2381   13.5881   26.8846 C   0  0  0  0  0  0  0  0  0  0  0  0
  -19.5321   12.8469   26.5994 C   0  0  0  0  0  0  0  0  0  0  0  0
  -19.6295   11.8866   25.5761 C   0  0  0  0  0  0  0  0  0  0  0  0
  -20.8326   11.2250   25.3274 C   0  0  0  0  0  0  0  0  0  0  0  0
  -21.9418   11.5004   26.1149 C   0  0  0  0  0  0  0  0  0  0  0  0
  -23.0959   10.8668   25.8722 F   0  0  0  0  0  0  0  0  0  0  0  0
  -21.8660   12.4218   27.1527 C   0  0  0  0  0  0  0  0  0  0  0  0
  -20.6629   13.0906   27.3965 C   0  0  0  0  0  0  0  0  0  0  0  0
  -18.2471   15.0436   26.4054 C   0  0  0  0  0  0  0  0  0  0  0  0
  -16.9293   15.4411   25.8273 N   0  0  0  0  0  0  0  0  0  0  0  0
  -16.3122   14.6303   25.7511 H   0  0  0  0  0  0  0  0  0  0  0  0
  -17.4325   17.9040   26.8271 C   0  0  0  0  0  0  0  0  0  0  0  0
  -16.1779   16.6471   26.7704 S   0  0  0  0  0  0  0  0  0  0  0  0
  -15.0735   17.1416   25.9791 O   0  0  0  0  0  0  0  0  0  0  0  0
  -15.9863   16.1146   28.0997 O   0  0  0  0  0  0  0  0  0  0  0  0
  1  2  1  0  0  0  0
  2  3  1  0  0  0  0
  2  8  2  0  0  0  0
  3  4  2  0  0  0  0
  4  5  1  0  0  0  0
  5  6  1  0  0  0  0
  5  7  2  0  0  0  0
  7  8  1  0  0  0  0
  9  1  1  0  0  0  0
 10  9  1  0  0  0  0
 10 11  1  0  0  0  0
 12 13  1  0  0  0  0
 13 14  2  0  0  0  0
 13 15  2  0  0  0  0
 13 10  1  0  0  0  0
M  END
>  <minimizedAffinity>
-6.95891

$$$$
