
 OpenBabel11261916453D

 15 16  0  0  0  0  0  0  0  0999 V2000
  -19.8014   11.1737   25.6240 N   0  0  0  0  0  0  0  0  0  0  0  0
  -21.1081   11.0386   25.1943 N   0  0  0  0  0  0  0  0  0  0  0  0
  -22.0185   11.7309   25.8017 C   0  0  0  0  0  0  0  0  0  0  0  0
  -23.4526   11.5769   25.3644 C   0  0  0  0  0  0  0  0  0  0  0  0
  -21.7527   12.6693   26.9098 C   0  0  0  0  0  0  0  0  0  0  0  0
  -20.4898   12.7712   27.3227 C   0  0  0  0  0  0  0  0  0  0  0  0
  -19.4148   11.9808   26.6844 C   0  0  0  0  0  0  0  0  0  0  0  0
  -18.2702   12.0706   27.1225 O   0  0  0  0  0  0  0  0  0  0  0  0
  -18.8178   10.3079   24.9862 C   0  0  0  0  0  0  0  0  0  0  0  0
  -15.9078   13.5147   22.2871 C   0  0  0  0  0  0  0  0  0  0  0  0
  -16.6800   12.3749   22.8289 C   0  0  0  0  0  0  0  0  0  0  0  0
  -17.6507   12.3769   23.8562 C   0  0  0  0  0  0  0  0  0  0  0  0
  -17.9795   11.0529   24.0176 C   0  0  0  0  0  0  0  0  0  0  0  0
  -17.2899   10.3094   23.1092 O   0  0  0  0  0  0  0  0  0  0  0  0
  -16.4722   11.1386   22.3599 N   0  0  0  0  0  0  0  0  0  0  0  0
  1  2  1  0  0  0  0
  1  7  1  0  0  0  0
  2  3  2  0  0  0  0
  3  4  1  0  0  0  0
  3  5  1  0  0  0  0
  5  6  2  0  0  0  0
  6  7  1  0  0  0  0
  7  8  2  0  0  0  0
  9  1  1  0  0  0  0
 10 11  1  0  0  0  0
 11 12  1  0  0  0  0
 11 15  2  0  0  0  0
 12 13  2  0  0  0  0
 13  9  1  0  0  0  0
 13 14  1  0  0  0  0
 14 15  1  0  0  0  0
M  END
>  <minimizedAffinity>
-7.30423

$$$$
