
 OpenBabel11261916443D

 16 17  0  0  0  0  0  0  0  0999 V2000
  -18.3190   14.2358   25.7862 C   0  0  0  0  0  0  0  0  0  0  0  0
  -19.1801   14.3111   24.5253 C   0  0  0  0  0  0  0  0  0  0  0  0
  -17.7478   13.8954   24.4120 C   0  0  0  0  0  0  0  0  0  0  0  0
  -16.0809   17.0651   26.8892 C   0  0  0  0  0  0  0  0  0  0  0  0
  -16.6078   15.8416   26.3485 N   0  0  0  0  0  0  0  0  0  0  0  0
  -17.9501   15.5579   26.4031 C   0  0  0  0  0  0  0  0  0  0  0  0
  -18.7996   16.2747   26.9134 O   0  0  0  0  0  0  0  0  0  0  0  0
  -15.9726   15.1519   25.9717 H   0  0  0  0  0  0  0  0  0  0  0  0
  -18.5839   13.0729   26.7337 C   0  0  0  0  0  0  0  0  0  0  0  0
  -19.9991   12.5476   26.6852 C   0  0  0  0  0  0  0  0  0  0  0  0
  -21.0182   13.0351   27.5159 C   0  0  0  0  0  0  0  0  0  0  0  0
  -22.3051   12.4915   27.4621 C   0  0  0  0  0  0  0  0  0  0  0  0
  -22.5889   11.4395   26.5918 C   0  0  0  0  0  0  0  0  0  0  0  0
  -21.5831   10.9303   25.7754 C   0  0  0  0  0  0  0  0  0  0  0  0
  -20.3054   11.4816   25.8311 C   0  0  0  0  0  0  0  0  0  0  0  0
  -19.3519   10.9635   25.0416 F   0  0  0  0  0  0  0  0  0  0  0  0
  1  9  1  0  0  0  0
  1  2  1  0  0  0  0
  1  3  1  0  0  0  0
  2  3  1  0  0  0  0
  4  5  1  0  0  0  0
  5  6  1  0  0  0  0
  5  8  1  0  0  0  0
  6  7  2  0  0  0  0
  6  1  1  0  0  0  0
  9 10  1  0  0  0  0
 10 11  1  0  0  0  0
 10 15  2  0  0  0  0
 11 12  2  0  0  0  0
 12 13  1  0  0  0  0
 13 14  2  0  0  0  0
 14 15  1  0  0  0  0
 15 16  1  0  0  0  0
M  END
>  <minimizedAffinity>
-6.96490

$$$$
