
 OpenBabel11261916443D

 10 10  0  0  0  0  0  0  0  0999 V2000
  -20.2924   12.8107   27.5606 C   0  0  0  0  0  0  0  0  0  0  0  0
  -21.7852   12.7073   27.5173 C   0  0  0  0  0  0  0  0  0  0  0  0
  -22.6440   13.3208   28.4891 C   0  0  0  0  0  0  0  0  0  0  0  0
  -23.9763   13.0892   28.2446 C   0  0  0  0  0  0  0  0  0  0  0  0
  -24.2087   12.1375   26.8526 S   0  0  0  0  0  0  0  0  0  0  0  0
  -22.5190   12.0199   26.5539 C   0  0  0  0  0  0  0  0  0  0  0  0
  -22.0114   11.2711   25.4093 C   0  0  0  0  0  0  0  0  0  0  0  0
  -20.9295   10.7036   25.3510 O   0  0  0  0  0  0  0  0  0  0  0  0
  -22.8734   11.2501   24.3573 O   0  0  0  0  0  0  0  0  0  0  0  0
  -23.6895   11.7466   24.5594 H   0  0  0  0  0  0  0  0  0  0  0  0
  1  2  1  0  0  0  0
  2  3  1  0  0  0  0
  2  6  2  0  0  0  0
  3  4  2  0  0  0  0
  4  5  1  0  0  0  0
  5  6  1  0  0  0  0
  6  7  1  0  0  0  0
  7  8  2  0  0  0  0
  7  9  1  0  0  0  0
  9 10  1  0  0  0  0
M  END
>  <minimizedAffinity>
-5.68540

$$$$
