
 OpenBabel11261916453D

 11 11  0  0  0  0  0  0  0  0999 V2000
  -18.9771   12.6334   25.4778 N   0  0  0  0  0  0  0  0  0  0  0  0
  -18.3886   12.8720   24.2693 C   0  0  0  0  0  0  0  0  0  0  0  0
  -18.1018   11.6353   23.7288 C   0  0  0  0  0  0  0  0  0  0  0  0
  -18.6057   10.7200   24.6816 C   0  0  0  0  0  0  0  0  0  0  0  0
  -19.1255   11.3249   25.7497 N   0  0  0  0  0  0  0  0  0  0  0  0
  -20.3082   13.0328   27.5019 C   0  0  0  0  0  0  0  0  0  0  0  0
  -19.3738   13.6229   26.4604 C   0  0  0  0  0  0  0  0  0  0  0  0
  -17.4014   11.3171   22.4515 C   0  0  0  0  0  0  0  0  0  0  0  0
  -16.0219   11.9727   22.3630 C   0  0  0  0  0  0  0  0  0  0  0  0
  -14.9808   11.0359   22.6262 O   0  0  0  0  0  0  0  0  0  0  0  0
  -15.0492   10.7937   23.5681 H   0  0  0  0  0  0  0  0  0  0  0  0
  1  2  1  0  0  0  0
  1  5  1  0  0  0  0
  2  3  2  0  0  0  0
  3  8  1  0  0  0  0
  3  4  1  0  0  0  0
  4  5  2  0  0  0  0
  6  7  1  0  0  0  0
  7  1  1  0  0  0  0
  8  9  1  0  0  0  0
  9 10  1  0  0  0  0
 10 11  1  0  0  0  0
M  END
>  <minimizedAffinity>
-5.46080

$$$$
