
 OpenBabel11261916433D

 12 12  0  0  0  0  0  0  0  0999 V2000
  -23.4706   11.6796   25.7115 C   0  0  0  0  0  0  0  0  0  0  0  0
  -22.6777   12.0726   26.8748 N   0  0  0  0  0  0  0  0  0  0  0  0
  -21.2952   12.0526   26.6922 C   0  0  0  0  0  0  0  0  0  0  0  0
  -20.4486   12.8194   27.4954 C   0  0  0  0  0  0  0  0  0  0  0  0
  -19.0781   12.8525   27.2411 C   0  0  0  0  0  0  0  0  0  0  0  0
  -18.5650   12.0874   26.2051 C   0  0  0  0  0  0  0  0  0  0  0  0
  -19.4504   11.3161   25.4798 C   0  0  0  0  0  0  0  0  0  0  0  0
  -20.7842   11.2919   25.6982 N   0  0  0  0  0  0  0  0  0  0  0  0
  -23.2641   13.0808   27.7771 C   0  0  0  0  0  0  0  0  0  0  0  0
  -23.8567   12.4946   29.0695 C   0  0  0  0  0  0  0  0  0  0  0  0
  -22.9547   11.5874   29.6970 O   0  0  0  0  0  0  0  0  0  0  0  0
  -22.8366   10.8608   29.0540 H   0  0  0  0  0  0  0  0  0  0  0  0
  1  2  1  0  0  0  0
  2  9  1  0  0  0  0
  2  3  1  0  0  0  0
  3  4  1  0  0  0  0
  3  8  2  0  0  0  0
  4  5  2  0  0  0  0
  5  6  1  0  0  0  0
  6  7  2  0  0  0  0
  7  8  1  0  0  0  0
  9 10  1  0  0  0  0
 10 11  1  0  0  0  0
 11 12  1  0  0  0  0
M  END
>  <minimizedAffinity>
-5.25272

$$$$
