
 OpenBabel11261916453D

 15 16  0  0  0  0  0  0  0  0999 V2000
  -17.8750   14.5271   25.7137 C   0  0  0  0  0  0  0  0  0  0  0  0
  -18.2465   13.6164   24.8365 N   0  0  0  0  0  0  0  0  0  0  0  0
  -19.3310   12.9833   25.3951 C   0  0  0  0  0  0  0  0  0  0  0  0
  -20.1149   11.9350   24.8932 C   0  0  0  0  0  0  0  0  0  0  0  0
  -21.1699   11.4512   25.6777 C   0  0  0  0  0  0  0  0  0  0  0  0
  -21.4370   11.9996   26.9348 C   0  0  0  0  0  0  0  0  0  0  0  0
  -20.6660   13.0485   27.4504 C   0  0  0  0  0  0  0  0  0  0  0  0
  -19.6238   13.5132   26.6460 C   0  0  0  0  0  0  0  0  0  0  0  0
  -18.6894   14.5001   26.8241 N   0  0  0  0  0  0  0  0  0  0  0  0
  -18.5740   15.0673   27.6557 H   0  0  0  0  0  0  0  0  0  0  0  0
  -16.7392   15.4695   25.5654 C   0  0  0  0  0  0  0  0  0  0  0  0
  -15.6121   17.9044   26.4388 C   0  0  0  0  0  0  0  0  0  0  0  0
  -16.7410   16.6185   26.9304 S   0  0  0  0  0  0  0  0  0  0  0  0
  -16.1856   15.9400   28.0908 O   0  0  0  0  0  0  0  0  0  0  0  0
  -18.0656   17.2076   27.0059 O   0  0  0  0  0  0  0  0  0  0  0  0
  1  2  2  0  0  0  0
  1  9  1  0  0  0  0
  2  3  1  0  0  0  0
  3  4  1  0  0  0  0
  3  8  2  0  0  0  0
  4  5  2  0  0  0  0
  5  6  1  0  0  0  0
  6  7  2  0  0  0  0
  7  8  1  0  0  0  0
  8  9  1  0  0  0  0
  9 10  1  0  0  0  0
 11  1  1  0  0  0  0
 12 13  1  0  0  0  0
 13 14  2  0  0  0  0
 13 15  2  0  0  0  0
 13 11  1  0  0  0  0
M  END
>  <minimizedAffinity>
-5.27094

$$$$
