
 OpenBabel11261916433D

 13 14  0  0  0  0  0  0  0  0999 V2000
  -18.2070   10.2817   24.1454 O   0  0  0  0  0  0  0  0  0  0  0  0
  -18.0209   11.4856   24.0376 C   0  0  0  0  0  0  0  0  0  0  0  0
  -18.6801   12.3436   24.8697 N   0  0  0  0  0  0  0  0  0  0  0  0
  -18.7595   13.7803   24.7464 C   0  0  0  0  0  0  0  0  0  0  0  0
  -18.3219   14.2328   26.1157 C   0  0  0  0  0  0  0  0  0  0  0  0
  -19.1469   13.2718   26.9800 C   0  0  0  0  0  0  0  0  0  0  0  0
  -19.0323   11.9419   26.2193 C   0  0  0  0  0  0  0  0  0  0  0  0
  -16.9231   11.9199   23.1387 C   0  0  0  0  0  0  0  0  0  0  0  0
  -16.4039   13.1939   23.0171 C   0  0  0  0  0  0  0  0  0  0  0  0
  -15.5247   13.2140   21.9969 N   0  0  0  0  0  0  0  0  0  0  0  0
  -15.4883   12.0023   21.4596 N   0  0  0  0  0  0  0  0  0  0  0  0
  -16.3280   11.1956   22.1213 C   0  0  0  0  0  0  0  0  0  0  0  0
  -14.9204   11.7371   20.6275 H   0  0  0  0  0  0  0  0  0  0  0  0
  1  2  2  0  0  0  0
  2  3  1  0  0  0  0
  2  8  1  0  0  0  0
  3  4  1  0  0  0  0
  3  7  1  0  0  0  0
  4  5  1  0  0  0  0
  5  6  1  0  0  0  0
  6  7  1  0  0  0  0
  8  9  1  0  0  0  0
  8 12  2  0  0  0  0
  9 10  2  0  0  0  0
 10 11  1  0  0  0  0
 11 12  1  0  0  0  0
 11 13  1  0  0  0  0
M  END
>  <minimizedAffinity>
-5.87382

$$$$
