
 OpenBabel11261916443D

 18 20  0  0  0  0  0  0  0  0999 V2000
  -19.1917   12.1888   25.8716 N   0  0  0  0  0  0  0  0  0  0  0  0
  -18.5549   10.9825   25.2992 C   0  0  0  0  0  0  0  0  0  0  0  0
  -18.3099   11.1756   23.7867 C   0  0  0  0  0  0  0  0  0  0  0  0
  -17.5791   12.4195   23.5106 N   0  0  0  0  0  0  0  0  0  0  0  0
  -18.2042   13.6149   24.0977 C   0  0  0  0  0  0  0  0  0  0  0  0
  -18.4469   13.4344   25.6090 C   0  0  0  0  0  0  0  0  0  0  0  0
  -16.3875   12.3573   22.8033 C   0  0  0  0  0  0  0  0  0  0  0  0
  -15.9317   11.3021   22.3683 O   0  0  0  0  0  0  0  0  0  0  0  0
  -24.2100   12.0059   28.2469 F   0  0  0  0  0  0  0  0  0  0  0  0
  -23.0014   12.0553   27.6713 C   0  0  0  0  0  0  0  0  0  0  0  0
  -22.7043   11.2048   26.6213 C   0  0  0  0  0  0  0  0  0  0  0  0
  -21.4356   11.2576   26.0284 C   0  0  0  0  0  0  0  0  0  0  0  0
  -20.4424   12.1575   26.4588 C   0  0  0  0  0  0  0  0  0  0  0  0
  -20.7924   13.0007   27.5290 C   0  0  0  0  0  0  0  0  0  0  0  0
  -22.0565   12.9549   28.1323 C   0  0  0  0  0  0  0  0  0  0  0  0
  -15.5992   13.6142   22.6180 C   0  0  0  0  0  0  0  0  0  0  0  0
  -14.0898   13.5373   22.7162 C   0  0  0  0  0  0  0  0  0  0  0  0
  -14.7344   13.8244   21.3935 C   0  0  0  0  0  0  0  0  0  0  0  0
  1  2  1  0  0  0  0
  1  6  1  0  0  0  0
  2  3  1  0  0  0  0
  3  4  1  0  0  0  0
  4  5  1  0  0  0  0
  4  7  1  0  0  0  0
  5  6  1  0  0  0  0
  7  8  2  0  0  0  0
  7 16  1  0  0  0  0
  9 10  1  0  0  0  0
 10 11  1  0  0  0  0
 10 15  2  0  0  0  0
 11 12  2  0  0  0  0
 12 13  1  0  0  0  0
 13 14  2  0  0  0  0
 13  1  1  0  0  0  0
 14 15  1  0  0  0  0
 16 17  1  0  0  0  0
 16 18  1  0  0  0  0
 17 18  1  0  0  0  0
M  END
>  <minimizedAffinity>
-7.71431

$$$$
