
 OpenBabel11261916443D

 11 11  0  0  0  0  0  0  0  0999 V2000
  -19.2135   11.7448   25.7028 C   0  0  0  0  0  0  0  0  0  0  0  0
  -18.7025   12.3900   26.8497 C   0  0  0  0  0  0  0  0  0  0  0  0
  -19.6602   12.8461   27.6593 N   0  0  0  0  0  0  0  0  0  0  0  0
  -20.7955   12.4960   27.0344 N   0  0  0  0  0  0  0  0  0  0  0  0
  -20.5843   11.8486   25.8542 C   0  0  0  0  0  0  0  0  0  0  0  0
  -21.6796   12.7262   27.4777 H   0  0  0  0  0  0  0  0  0  0  0  0
  -18.5064   11.0808   24.6253 C   0  0  0  0  0  0  0  0  0  0  0  0
  -18.3476    9.8679   24.5737 O   0  0  0  0  0  0  0  0  0  0  0  0
  -17.9863   11.9724   23.7305 O   0  0  0  0  0  0  0  0  0  0  0  0
  -16.0494   11.9759   22.2649 C   0  0  0  0  0  0  0  0  0  0  0  0
  -17.4320   11.4172   22.5286 C   0  0  0  0  0  0  0  0  0  0  0  0
  1  2  1  0  0  0  0
  1  5  2  0  0  0  0
  2  3  2  0  0  0  0
  3  4  1  0  0  0  0
  4  5  1  0  0  0  0
  4  6  1  0  0  0  0
  7  8  2  0  0  0  0
  7  1  1  0  0  0  0
  9  7  1  0  0  0  0
 10 11  1  0  0  0  0
 11  9  1  0  0  0  0
M  END
>  <minimizedAffinity>
-5.00210

$$$$
