@<TRIPOS>MOLECULE
*****
   14    14     0     0     0
SMALL
NO_CHARGES

@<TRIPOS>ATOM
      1 C1          1.8851   -1.0363   -0.1124 C.ar      1 UNL1        0.0000
      2 C2          2.8783   -1.6520    2.0022 C.ar      1 UNL1        0.0000
      3 C3          0.8066   -0.4630    0.5610 C.ar      1 UNL1        0.0000
      4 C4          1.7997   -1.0786    2.6757 C.ar      1 UNL1        0.0000
      5 C5          2.9210   -1.6309    0.6081 C.ar      1 UNL1        0.0000
      6 C6          0.7638   -0.4841    1.9551 C.ar      1 UNL1        0.0000
      7 C7          4.0590   -2.2352   -0.1030 C.2       1 UNL1        0.0000
      8 O1          5.0028   -2.7775    0.5854 O.co2     1 UNL1        0.0000
      9 O2          4.0741   -2.2016   -1.3904 O.co2     1 UNL1        0.0000
     10 Cl1        -0.5663    0.2249    2.7850 Cl        1 UNL1        0.0000
     11 H1          1.9080   -1.0153   -1.1989 H         1 UNL1        0.0000
     12 H2          3.6798   -2.1130    2.5734 H         1 UNL1        0.0000
     13 H3          0.0060   -0.0033   -0.0129 H         1 UNL1        0.0000
     14 H4          1.7796   -1.1033    3.7623 H         1 UNL1        0.0000
@<TRIPOS>BOND
     1    1    3 ar
     2    1    5 ar
     3    2    4 ar
     4    2    5 ar
     5    3    6 ar
     6    4    6 ar
     7    5    7 1
     8    6   10 1
     9    7    8 1
    10    7    9 2
    11    1   11 1
    12    2   12 1
    13    3   13 1
    14    4   14 1
