
     RDKit          3D

 25 26  0  0  0  0  0  0  0  0999 V2000
  -21.4560   11.4160   27.2160 O   0  0  0  0  0  0  0  0  0  0  0  0
  -21.0670   12.5450   27.5070 C   0  0  0  0  0  0  0  0  0  0  0  0
  -21.9320   13.4130   28.1270 N   0  0  0  0  0  0  0  0  0  0  0  0
  -21.5200   14.3340   28.3320 H   0  0  0  0  0  0  0  0  0  0  0  0
  -23.2480   13.1830   28.4860 C   0  0  0  0  0  0  0  0  0  0  0  0
  -23.9900   14.1150   29.1170 C   0  0  0  0  0  0  0  0  0  0  0  0
  -23.7690   15.0980   29.4380 H   0  0  0  0  0  0  0  0  0  0  0  0
  -25.2010   13.5310   29.2970 N   0  0  0  0  0  0  0  0  0  0  0  0
  -26.3690   14.0930   29.9250 C   0  0  0  0  0  0  0  0  0  0  0  0
  -26.1440   15.1020   30.2770 H   0  0  0  0  0  0  0  0  0  0  0  0
  -26.6480   13.4560   30.7680 H   0  0  0  0  0  0  0  0  0  0  0  0
  -27.1750   14.1260   29.1870 H   0  0  0  0  0  0  0  0  0  0  0  0
  -25.2440   12.2660   28.8010 N   0  0  0  0  0  0  0  0  0  0  0  0
  -24.0500   12.0560   28.3060 C   0  0  0  0  0  0  0  0  0  0  0  0
  -23.7580   11.1500   27.8390 H   0  0  0  0  0  0  0  0  0  0  0  0
  -19.7360   13.0550   27.2460 C   0  0  0  0  0  0  0  0  0  0  0  0
  -18.6980   12.2680   27.1160 N   0  0  0  0  0  0  0  0  0  0  0  0
  -17.6420   13.0440   26.8870 O   0  0  0  0  0  0  0  0  0  0  0  0
  -18.0010   14.3310   26.8700 C   0  0  0  0  0  0  0  0  0  0  0  0
  -16.9400   15.3210   26.6260 C   0  0  0  0  0  0  0  0  0  0  0  0
  -17.3410   16.3390   26.6410 H   0  0  0  0  0  0  0  0  0  0  0  0
  -16.4750   15.1520   25.6500 H   0  0  0  0  0  0  0  0  0  0  0  0
  -16.1640   15.2500   27.3940 H   0  0  0  0  0  0  0  0  0  0  0  0
  -19.3200   14.3790   27.0940 C   0  0  0  0  0  0  0  0  0  0  0  0
  -19.9290   15.2450   27.1460 H   0  0  0  0  0  0  0  0  0  0  0  0
  1  2  2  0
  2  3  1  0
  2 16  1  0
  3  4  1  0
  3  5  1  0
  5  6  2  0
  5 14  1  0
  6  7  1  0
  6  8  1  0
  8  9  1  0
  8 13  1  0
  9 10  1  0
  9 11  1  0
  9 12  1  0
 13 14  2  0
 14 15  1  0
 16 17  2  0
 16 24  1  0
 17 18  1  0
 18 19  1  0
 19 20  1  0
 19 24  2  0
 20 21  1  0
 20 22  1  0
 20 23  1  0
 24 25  1  0
M  END
>  <EnInt_ele>  (1) 
-3.204664

>  <EnInt_vdw>  (1) 
9.662943

>  <EnInt_tot>  (1) 
6.458279

>  <Charges>  (1) 
-0.57 0.72 -0.49 0.37 0.06 -0.30 0.15 0.31 0.26 0.00 0.00 0.00 -0.71 0.14 0.15 0.20 -0.41 -0.02 -0.04 0.18 0.00 0.00 0.00 -0.15 0.15

$$$$
