
     RDKit          3D

 23 24  0  0  0  0  0  0  0  0999 V2000
  -22.1240   10.4950   27.0670 O   0  0  0  0  0  0  0  0  0  0  0  0
  -21.7310   11.4720   27.6970 C   0  0  0  0  0  0  0  0  0  0  0  0
  -20.5590   12.0700   27.2630 N   0  0  0  0  0  0  0  0  0  0  0  0
  -19.8260   13.1670   27.8870 C   0  0  0  0  0  0  0  0  0  0  0  0
  -20.4620   14.0390   28.0450 H   0  0  0  0  0  0  0  0  0  0  0  0
  -19.4480   12.8140   28.8520 H   0  0  0  0  0  0  0  0  0  0  0  0
  -18.6940   13.4860   26.9170 C   0  0  0  0  0  0  0  0  0  0  0  0
  -19.0280   14.2370   26.1900 H   0  0  0  0  0  0  0  0  0  0  0  0
  -17.8040   13.8700   27.4210 H   0  0  0  0  0  0  0  0  0  0  0  0
  -18.4570   12.1600   26.2100 C   0  0  0  0  0  0  0  0  0  0  0  0
  -17.8470   11.5060   26.8450 H   0  0  0  0  0  0  0  0  0  0  0  0
  -17.9530   12.2730   25.2470 H   0  0  0  0  0  0  0  0  0  0  0  0
  -19.8610   11.5960   26.0760 C   0  0  0  0  0  0  0  0  0  0  0  0
  -19.8700   10.5040   26.0120 H   0  0  0  0  0  0  0  0  0  0  0  0
  -20.3770   12.0070   25.2000 H   0  0  0  0  0  0  0  0  0  0  0  0
  -22.4130   11.9550   28.8820 C   0  0  0  0  0  0  0  0  0  0  0  0
  -22.8120   13.2480   29.0550 C   0  0  0  0  0  0  0  0  0  0  0  0
  -22.7380   14.0920   28.4190 H   0  0  0  0  0  0  0  0  0  0  0  0
  -23.3660   13.3050   30.2770 N   0  0  0  0  0  0  0  0  0  0  0  0
  -23.7680   14.1600   30.7080 H   0  0  0  0  0  0  0  0  0  0  0  0
  -23.3360   12.1000   30.9110 N   0  0  0  0  0  0  0  0  0  0  0  0
  -22.7520   11.2970   30.0670 C   0  0  0  0  0  0  0  0  0  0  0  0
  -22.5580   10.2770   30.2820 H   0  0  0  0  0  0  0  0  0  0  0  0
  1  2  2  0
  2  3  1  0
  2 16  1  0
  3  4  1  0
  3 13  1  0
  4  5  1  0
  4  6  1  0
  4  7  1  0
  7  8  1  0
  7  9  1  0
  7 10  1  0
 10 11  1  0
 10 12  1  0
 10 13  1  0
 13 14  1  0
 13 15  1  0
 16 17  2  0
 16 22  1  0
 17 18  1  0
 17 19  1  0
 19 20  1  0
 19 21  1  0
 21 22  2  0
 22 23  1  0
M  END
>  <EnInt_ele>  (1) 
-7.54851

>  <EnInt_vdw>  (1) 
6.565249

>  <EnInt_tot>  (1) 
-0.9832604

>  <Charges>  (1) 
-0.57 0.72 -0.66 0.30 0.00 0.00 0.00 0.00 0.00 0.00 0.00 0.00 0.30 0.00 0.00 -0.09 -0.30 0.15 0.30 0.27 -0.71 0.14 0.15

$$$$
