
     RDKit          3D

 18 18  0  0  0  0  0  0  0  0999 V2000
  -19.6220   11.2730   26.5180 O   0  0  0  0  0  0  0  0  0  0  0  0
  -19.6630   12.4600   26.2290 C   0  0  0  0  0  0  0  0  0  0  0  0
  -20.4470   13.3870   26.8570 O   0  0  0  0  0  0  0  0  0  0  0  0
  -21.1570   12.9360   28.0210 C   0  0  0  0  0  0  0  0  0  0  0  0
  -21.5450   13.8280   28.5240 H   0  0  0  0  0  0  0  0  0  0  0  0
  -20.4850   12.4340   28.7260 H   0  0  0  0  0  0  0  0  0  0  0  0
  -22.3090   12.0380   27.6140 C   0  0  0  0  0  0  0  0  0  0  0  0
  -21.9450   11.1380   27.1080 H   0  0  0  0  0  0  0  0  0  0  0  0
  -22.9690   12.5530   26.9090 H   0  0  0  0  0  0  0  0  0  0  0  0
  -22.8930   11.7360   28.4880 H   0  0  0  0  0  0  0  0  0  0  0  0
  -18.8680   13.0350   25.1600 C   0  0  0  0  0  0  0  0  0  0  0  0
  -18.0580   12.3760   24.2820 C   0  0  0  0  0  0  0  0  0  0  0  0
  -17.8280   11.3480   24.1730 H   0  0  0  0  0  0  0  0  0  0  0  0
  -17.5350   13.3210   23.4830 N   0  0  0  0  0  0  0  0  0  0  0  0
  -16.8720   13.1450   22.7030 H   0  0  0  0  0  0  0  0  0  0  0  0
  -17.9750   14.5670   23.8100 N   0  0  0  0  0  0  0  0  0  0  0  0
  -18.7770   14.3860   24.8210 C   0  0  0  0  0  0  0  0  0  0  0  0
  -19.2870   15.1770   25.3110 H   0  0  0  0  0  0  0  0  0  0  0  0
  1  2  2  0
  2  3  1  0
  2 11  1  0
  3  4  1  0
  4  5  1  0
  4  6  1  0
  4  7  1  0
  7  8  1  0
  7  9  1  0
  7 10  1  0
 11 12  2  0
 11 17  1  0
 12 13  1  0
 12 14  1  0
 14 15  1  0
 14 16  1  0
 16 17  2  0
 17 18  1  0
M  END
>  <EnInt_ele>  (1) 
-6.774914

>  <EnInt_vdw>  (1) 
6.031454

>  <EnInt_tot>  (1) 
-0.7434601

>  <Charges>  (1) 
-0.57 0.81 -0.43 0.28 0.00 0.00 0.00 0.00 0.00 0.00 -0.09 -0.30 0.15 0.30 0.27 -0.71 0.14 0.15

$$$$
