
     RDKit          3D

 26 26  0  0  1  0  0  0  0  0999 V2000
  -19.6330   12.2880   29.1200 F   0  0  0  0  0  0  0  0  0  0  0  0
  -19.7180   12.4030   27.7860 C   0  0  0  0  0  0  0  0  0  0  0  0
  -20.9410   12.6410   27.1310 C   0  0  0  0  0  0  0  0  0  0  0  0
  -22.1430   12.8020   27.8380 N   0  0  0  0  0  0  0  0  0  0  0  0
  -22.9870   11.6010   28.0420 C   0  0  0  0  0  0  0  0  0  0  0  0
  -24.3740   11.7810   27.3980 C   0  0  0  0  0  0  0  0  0  0  0  0
  -24.4760   12.7910   26.9860 H   0  0  0  0  0  0  0  0  0  0  0  0
  -25.1780   11.6400   28.1270 H   0  0  0  0  0  0  0  0  0  0  0  0
  -24.5860   10.8530   26.3360 O   0  0  0  0  0  0  0  0  0  0  0  0
  -25.5270   10.9530   26.1020 H   0  0  0  0  0  0  0  0  0  0  0  0
  -23.1070   11.2170   29.5220 C   0  0  0  0  0  0  0  0  0  0  0  0
  -23.5750   10.2300   29.6170 H   0  0  0  0  0  0  0  0  0  0  0  0
  -23.7260   11.9170   30.0910 H   0  0  0  0  0  0  0  0  0  0  0  0
  -22.1220   11.1660   29.9960 H   0  0  0  0  0  0  0  0  0  0  0  0
  -22.5350   14.1060   28.3540 C   0  0  0  0  0  0  0  0  0  0  0  0
  -21.9530   14.3600   29.2460 H   0  0  0  0  0  0  0  0  0  0  0  0
  -23.5930   14.1450   28.6300 H   0  0  0  0  0  0  0  0  0  0  0  0
  -22.4080   14.8880   27.5970 H   0  0  0  0  0  0  0  0  0  0  0  0
  -21.0090   12.7370   25.7950 N   0  0  0  0  0  0  0  0  0  0  0  0
  -19.8850   12.5860   25.0820 C   0  0  0  0  0  0  0  0  0  0  0  0
  -19.9580   12.6600   24.0280 H   0  0  0  0  0  0  0  0  0  0  0  0
  -18.6460   12.3390   25.6770 C   0  0  0  0  0  0  0  0  0  0  0  0
  -17.7840   12.2260   25.0740 H   0  0  0  0  0  0  0  0  0  0  0  0
  -18.5510   12.2440   27.0630 C   0  0  0  0  0  0  0  0  0  0  0  0
  -17.6280   12.0610   27.5500 H   0  0  0  0  0  0  0  0  0  0  0  0
  -22.5080   10.7320   27.5720 H   0  0  0  0  0  0  0  0  0  0  0  0
  1  2  1  0
  2  3  2  0
  2 24  1  0
  3  4  1  0
  3 19  1  0
  4  5  1  0
  4 15  1  0
  5  6  1  0
  5 11  1  0
  5 26  1  0
  6  7  1  0
  6  8  1  0
  6  9  1  0
  9 10  1  0
 11 12  1  0
 11 13  1  0
 11 14  1  0
 15 16  1  0
 15 17  1  0
 15 18  1  0
 19 20  2  0
 20 21  1  0
 20 22  1  0
 22 23  1  0
 22 24  2  0
 24 25  1  0
M  END
>  <EnInt_ele>  (1) 
2.653911

>  <EnInt_vdw>  (1) 
6.503675

>  <EnInt_tot>  (1) 
9.157586

>  <Charges>  (1) 
-0.19 0.19 0.41 -0.84 0.37 0.28 0.00 0.00 -0.68 0.40 0.00 0.00 0.00 0.00 0.37 0.00 0.00 0.00 -0.62 0.16 0.15 -0.15 0.15 -0.15 0.15 0.00

$$$$
