
     RDKit          3D

 26 26  0  0  1  0  0  0  0  0999 V2000
  -19.6170   12.3440   28.9150 F   0  0  0  0  0  0  0  0  0  0  0  0
  -20.8070   12.4720   28.3080 C   0  0  0  0  0  0  0  0  0  0  0  0
  -20.9270   12.9480   26.9900 C   0  0  0  0  0  0  0  0  0  0  0  0
  -19.8060   13.2890   26.2170 N   0  0  0  0  0  0  0  0  0  0  0  0
  -19.4730   12.4180   25.0660 C   0  0  0  0  0  0  0  0  0  0  0  0
  -18.8660   11.0830   25.5370 C   0  0  0  0  0  0  0  0  0  0  0  0
  -19.5950   10.5200   26.1300 H   0  0  0  0  0  0  0  0  0  0  0  0
  -17.9840   11.2420   26.1650 H   0  0  0  0  0  0  0  0  0  0  0  0
  -18.4720   10.2650   24.4370 O   0  0  0  0  0  0  0  0  0  0  0  0
  -18.3940    9.3680   24.8090 H   0  0  0  0  0  0  0  0  0  0  0  0
  -18.5610   13.1150   24.0490 C   0  0  0  0  0  0  0  0  0  0  0  0
  -18.4910   12.5150   23.1340 H   0  0  0  0  0  0  0  0  0  0  0  0
  -17.5400   13.2470   24.4200 H   0  0  0  0  0  0  0  0  0  0  0  0
  -18.9570   14.0970   23.7750 H   0  0  0  0  0  0  0  0  0  0  0  0
  -19.0090   14.4650   26.5380 C   0  0  0  0  0  0  0  0  0  0  0  0
  -19.5260   15.3790   26.2290 H   0  0  0  0  0  0  0  0  0  0  0  0
  -18.0330   14.4550   26.0430 H   0  0  0  0  0  0  0  0  0  0  0  0
  -18.7860   14.5130   27.6100 H   0  0  0  0  0  0  0  0  0  0  0  0
  -22.1270   13.0840   26.4040 N   0  0  0  0  0  0  0  0  0  0  0  0
  -23.2230   12.7720   27.1080 C   0  0  0  0  0  0  0  0  0  0  0  0
  -24.1630   12.8900   26.6320 H   0  0  0  0  0  0  0  0  0  0  0  0
  -23.1640   12.3050   28.4220 C   0  0  0  0  0  0  0  0  0  0  0  0
  -24.0570   12.0710   28.9400 H   0  0  0  0  0  0  0  0  0  0  0  0
  -21.9290   12.1470   29.0460 C   0  0  0  0  0  0  0  0  0  0  0  0
  -21.8450   11.7930   30.0400 H   0  0  0  0  0  0  0  0  0  0  0  0
  -20.3880   12.1900   24.5020 H   0  0  0  0  0  0  0  0  0  0  0  0
  1  2  1  0
  2  3  2  0
  2 24  1  0
  3  4  1  0
  3 19  1  0
  4  5  1  0
  4 15  1  0
  5  6  1  0
  5 11  1  0
  5 26  1  0
  6  7  1  0
  6  8  1  0
  6  9  1  0
  9 10  1  0
 11 12  1  0
 11 13  1  0
 11 14  1  0
 15 16  1  0
 15 17  1  0
 15 18  1  0
 19 20  2  0
 20 21  1  0
 20 22  1  0
 22 23  1  0
 22 24  2  0
 24 25  1  0
M  END
>  <EnInt_ele>  (1) 
1.828548

>  <EnInt_vdw>  (1) 
3.171974

>  <EnInt_tot>  (1) 
5.000523

>  <Charges>  (1) 
-0.19 0.19 0.41 -0.84 0.37 0.28 0.00 0.00 -0.68 0.40 0.00 0.00 0.00 0.00 0.37 0.00 0.00 0.00 -0.62 0.16 0.15 -0.15 0.15 -0.15 0.15 0.00

$$$$
