
     RDKit          3D

 26 27  0  0  0  0  0  0  0  0999 V2000
  -23.5940   11.7390   26.6410 O   0  0  0  0  0  0  0  0  0  0  0  0
  -23.9920   12.6260   27.4070 C   0  0  0  0  0  0  0  0  0  0  0  0
  -23.3450   12.8240   28.6340 N   0  0  0  0  0  0  0  0  0  0  0  0
  -22.1870   12.0150   29.0080 C   0  0  0  0  0  0  0  0  0  0  0  0
  -22.0510   12.0840   30.0940 H   0  0  0  0  0  0  0  0  0  0  0  0
  -22.3760   10.9640   28.7670 H   0  0  0  0  0  0  0  0  0  0  0  0
  -20.9810   12.5060   28.3060 C   0  0  0  0  0  0  0  0  0  0  0  0
  -19.7950   12.2110   28.8420 O   0  0  0  0  0  0  0  0  0  0  0  0
  -18.8100   12.7340   28.1000 N   0  0  0  0  0  0  0  0  0  0  0  0
  -19.3630   13.3490   27.1130 C   0  0  0  0  0  0  0  0  0  0  0  0
  -18.5520   14.0400   26.0900 C   0  0  0  0  0  0  0  0  0  0  0  0
  -19.1780   14.6690   25.4490 H   0  0  0  0  0  0  0  0  0  0  0  0
  -18.0390   13.3120   25.4520 H   0  0  0  0  0  0  0  0  0  0  0  0
  -17.7980   14.6830   26.5560 H   0  0  0  0  0  0  0  0  0  0  0  0
  -20.7420   13.2340   27.2040 C   0  0  0  0  0  0  0  0  0  0  0  0
  -21.4660   13.6390   26.5450 H   0  0  0  0  0  0  0  0  0  0  0  0
  -23.7420   13.7780   29.5480 N   0  0  0  0  0  0  0  0  0  0  0  0
  -24.7550   14.5450   29.2900 C   0  0  0  0  0  0  0  0  0  0  0  0
  -25.1700   15.5750   30.3010 C   0  0  0  0  0  0  0  0  0  0  0  0
  -24.3180   16.2230   30.5290 H   0  0  0  0  0  0  0  0  0  0  0  0
  -25.4890   15.0710   31.2180 H   0  0  0  0  0  0  0  0  0  0  0  0
  -25.9940   16.1920   29.9320 H   0  0  0  0  0  0  0  0  0  0  0  0
  -25.4720   14.4210   28.0640 C   0  0  0  0  0  0  0  0  0  0  0  0
  -26.2930   15.0650   27.8810 H   0  0  0  0  0  0  0  0  0  0  0  0
  -25.1010   13.4870   27.1430 C   0  0  0  0  0  0  0  0  0  0  0  0
  -25.6120   13.3700   26.2250 H   0  0  0  0  0  0  0  0  0  0  0  0
  1  2  2  0
  2  3  1  0
  2 25  1  0
  3  4  1  0
  3 17  1  0
  4  5  1  0
  4  6  1  0
  4  7  1  0
  7  8  1  0
  7 15  2  0
  8  9  1  0
  9 10  2  0
 10 11  1  0
 10 15  1  0
 11 12  1  0
 11 13  1  0
 11 14  1  0
 15 16  1  0
 17 18  2  0
 18 19  1  0
 18 23  1  0
 19 20  1  0
 19 21  1  0
 19 22  1  0
 23 24  1  0
 23 25  2  0
 25 26  1  0
M  END
>  <EnInt_ele>  (1) 
-14.17275

>  <EnInt_vdw>  (1) 
0.5773498

>  <EnInt_tot>  (1) 
-13.5954

>  <Charges>  (1) 
-0.57 0.62 -0.30 0.48 0.00 0.00 -0.04 -0.02 -0.41 0.11 0.18 0.00 0.00 0.00 -0.15 0.15 -0.51 0.38 0.06 0.00 0.00 0.00 -0.14 0.15 -0.14 0.15

$$$$
