
     RDKit          3D

 18 18  0  0  0  0  0  0  0  0999 V2000
  -22.5800   10.8980   27.3090 O   0  0  0  0  0  0  0  0  0  0  0  0
  -21.8180   11.8060   27.6070 C   0  0  0  0  0  0  0  0  0  0  0  0
  -22.2770   12.8160   28.3930 N   0  0  0  0  0  0  0  0  0  0  0  0
  -21.6100   13.5310   28.7020 H   0  0  0  0  0  0  0  0  0  0  0  0
  -23.6550   12.9030   28.8340 C   0  0  0  0  0  0  0  0  0  0  0  0
  -23.9400   11.9410   29.2750 H   0  0  0  0  0  0  0  0  0  0  0  0
  -23.7080   13.6630   29.6210 H   0  0  0  0  0  0  0  0  0  0  0  0
  -24.5880   13.2580   27.6930 C   0  0  0  0  0  0  0  0  0  0  0  0
  -24.5410   12.5030   26.9010 H   0  0  0  0  0  0  0  0  0  0  0  0
  -24.3180   14.2230   27.2520 H   0  0  0  0  0  0  0  0  0  0  0  0
  -25.6210   13.3200   28.0490 H   0  0  0  0  0  0  0  0  0  0  0  0
  -20.4470   11.8490   27.1900 C   0  0  0  0  0  0  0  0  0  0  0  0
  -20.0270   11.2440   26.0810 N   0  0  0  0  0  0  0  0  0  0  0  0
  -20.6260   10.6980   25.4300 H   0  0  0  0  0  0  0  0  0  0  0  0
  -18.7150   11.4280   25.9070 N   0  0  0  0  0  0  0  0  0  0  0  0
  -18.2800   12.1620   26.9120 N   0  0  0  0  0  0  0  0  0  0  0  0
  -19.3330   12.4240   27.6990 C   0  0  0  0  0  0  0  0  0  0  0  0
  -19.2700   13.0020   28.5860 H   0  0  0  0  0  0  0  0  0  0  0  0
  1  2  2  0
  2  3  1  0
  2 12  1  0
  3  4  1  0
  3  5  1  0
  5  6  1  0
  5  7  1  0
  5  8  1  0
  8  9  1  0
  8 10  1  0
  8 11  1  0
 12 13  1  0
 12 17  2  0
 13 14  1  0
 13 15  1  0
 15 16  2  0
 16 17  1  0
 17 18  1  0
M  END
>  <EnInt_ele>  (1) 
-18.5779

>  <EnInt_vdw>  (1) 
2.591775

>  <EnInt_tot>  (1) 
-15.98613

>  <Charges>  (1) 
-0.57 0.71 -0.73 0.37 0.30 0.00 0.00 0.00 0.00 0.00 0.00 -0.24 0.30 0.27 -0.42 -0.23 0.08 0.15

$$$$
