
     RDKit          3D

 35 37  0  0  0  0  0  0  0  0999 V2000
  -18.4550   10.5580   24.3440 F   0  0  0  0  0  0  0  0  0  0  0  0
  -18.2860   11.7580   24.9160 C   0  0  0  0  0  0  0  0  0  0  0  0
  -18.1300   12.8730   24.1020 C   0  0  0  0  0  0  0  0  0  0  0  0
  -18.1460   12.7680   23.0480 H   0  0  0  0  0  0  0  0  0  0  0  0
  -17.9540   14.1210   24.6930 C   0  0  0  0  0  0  0  0  0  0  0  0
  -17.8350   14.9690   24.0780 H   0  0  0  0  0  0  0  0  0  0  0  0
  -17.9250   14.2360   26.0950 C   0  0  0  0  0  0  0  0  0  0  0  0
  -17.7320   15.4760   26.6910 N   0  0  0  0  0  0  0  0  0  0  0  0
  -18.8300   16.4290   26.9120 C   0  0  0  0  0  0  0  0  0  0  0  0
  -19.7810   16.1010   26.4820 H   0  0  0  0  0  0  0  0  0  0  0  0
  -18.9920   16.5120   27.9940 H   0  0  0  0  0  0  0  0  0  0  0  0
  -18.4590   17.8110   26.3510 C   0  0  0  0  0  0  0  0  0  0  0  0
  -19.2460   18.5290   26.5890 H   0  0  0  0  0  0  0  0  0  0  0  0
  -18.3780   17.7630   25.2580 H   0  0  0  0  0  0  0  0  0  0  0  0
  -17.1510   18.2530   26.8550 N   0  0  0  0  0  0  0  0  0  0  0  0
  -16.9180   19.4500   27.4900 C   0  0  0  0  0  0  0  0  0  0  0  0
  -15.7850   19.7090   27.8530 O   0  0  0  0  0  0  0  0  0  0  0  0
  -18.0390   20.3910   27.7120 C   0  0  0  0  0  0  0  0  0  0  0  0
  -18.6250   20.1770   28.6010 H   0  0  0  0  0  0  0  0  0  0  0  0
  -18.8220   20.9270   26.5350 C   0  0  0  0  0  0  0  0  0  0  0  0
  -18.5250   20.6230   25.5380 H   0  0  0  0  0  0  0  0  0  0  0  0
  -19.8900   21.0600   26.6570 H   0  0  0  0  0  0  0  0  0  0  0  0
  -17.9060   21.8370   27.2950 C   0  0  0  0  0  0  0  0  0  0  0  0
  -16.9930   22.1540   26.8020 H   0  0  0  0  0  0  0  0  0  0  0  0
  -18.3530   22.5910   27.9310 H   0  0  0  0  0  0  0  0  0  0  0  0
  -16.0650   17.2930   26.6220 C   0  0  0  0  0  0  0  0  0  0  0  0
  -15.9200   17.2380   25.5370 H   0  0  0  0  0  0  0  0  0  0  0  0
  -15.1230   17.6380   27.0610 H   0  0  0  0  0  0  0  0  0  0  0  0
  -16.4090   15.9000   27.1770 C   0  0  0  0  0  0  0  0  0  0  0  0
  -16.4280   15.9270   28.2720 H   0  0  0  0  0  0  0  0  0  0  0  0
  -15.6110   15.2140   26.8730 H   0  0  0  0  0  0  0  0  0  0  0  0
  -18.1080   13.0950   26.8930 C   0  0  0  0  0  0  0  0  0  0  0  0
  -18.1340   13.1820   27.9470 H   0  0  0  0  0  0  0  0  0  0  0  0
  -18.2810   11.8470   26.3010 C   0  0  0  0  0  0  0  0  0  0  0  0
  -18.4160   10.9790   26.8900 H   0  0  0  0  0  0  0  0  0  0  0  0
  1  2  1  0
  2  3  2  0
  2 34  1  0
  3  4  1  0
  3  5  1  0
  5  6  1  0
  5  7  2  0
  7  8  1  0
  7 32  1  0
  8  9  1  0
  8 29  1  0
  9 10  1  0
  9 11  1  0
  9 12  1  0
 12 13  1  0
 12 14  1  0
 12 15  1  0
 15 16  1  0
 15 26  1  0
 16 17  2  0
 16 18  1  0
 18 19  1  0
 18 20  1  0
 18 23  1  0
 20 21  1  0
 20 22  1  0
 20 23  1  0
 23 24  1  0
 23 25  1  0
 26 27  1  0
 26 28  1  0
 26 29  1  0
 29 30  1  0
 29 31  1  0
 32 33  1  0
 32 34  2  0
 34 35  1  0
M  END
>  <EnInt_ele>  (1) 
-5.060832

>  <EnInt_vdw>  (1) 
-0.814755

>  <EnInt_tot>  (1) 
-5.875587

>  <Charges>  (1) 
-0.19 0.19 -0.15 0.15 -0.15 0.15 0.10 -0.84 0.37 0.00 0.00 0.30 0.00 0.00 -0.66 0.63 -0.57 -0.10 0.10 -0.20 0.10 0.10 -0.20 0.10 0.10 0.30 0.00 0.00 0.37 0.00 0.00 -0.15 0.15 -0.15 0.15

$$$$
