
     RDKit          3D

 29 30  0  0  0  0  0  0  0  0999 V2000
  -19.5700   14.8870   27.1360 F   0  0  0  0  0  0  0  0  0  0  0  0
  -19.6160   13.6930   26.5260 C   0  0  0  0  0  0  0  0  0  0  0  0
  -20.3990   12.6720   27.0700 C   0  0  0  0  0  0  0  0  0  0  0  0
  -21.2070   12.8850   28.3250 C   0  0  0  0  0  0  0  0  0  0  0  0
  -21.2760   13.9570   28.5520 H   0  0  0  0  0  0  0  0  0  0  0  0
  -20.6470   12.4540   29.1650 H   0  0  0  0  0  0  0  0  0  0  0  0
  -22.6070   12.2840   28.2660 C   0  0  0  0  0  0  0  0  0  0  0  0
  -22.8070   11.0120   29.0270 C   0  0  0  0  0  0  0  0  0  0  0  0
  -22.9680    9.9310   28.4970 O   0  0  0  0  0  0  0  0  0  0  0  0
  -22.8220   11.1060   30.3790 N   0  0  0  0  0  0  0  0  0  0  0  0
  -22.7360   12.0260   30.7860 H   0  0  0  0  0  0  0  0  0  0  0  0
  -22.9740    9.9650   31.2470 C   0  0  0  0  0  0  0  0  0  0  0  0
  -23.9650    9.5300   31.0950 H   0  0  0  0  0  0  0  0  0  0  0  0
  -22.2090    9.2220   31.0090 H   0  0  0  0  0  0  0  0  0  0  0  0
  -22.8650   10.2960   32.2830 H   0  0  0  0  0  0  0  0  0  0  0  0
  -23.5160   12.5170   27.0550 C   0  0  0  0  0  0  0  0  0  0  0  0
  -24.2280   11.7390   26.7910 H   0  0  0  0  0  0  0  0  0  0  0  0
  -23.1550   13.0710   26.1980 H   0  0  0  0  0  0  0  0  0  0  0  0
  -23.7660   13.2830   28.3100 C   0  0  0  0  0  0  0  0  0  0  0  0
  -24.6420   13.0300   28.8960 H   0  0  0  0  0  0  0  0  0  0  0  0
  -23.5440   14.3440   28.3030 H   0  0  0  0  0  0  0  0  0  0  0  0
  -20.4130   11.4400   26.4150 C   0  0  0  0  0  0  0  0  0  0  0  0
  -20.9910   10.6390   26.7980 H   0  0  0  0  0  0  0  0  0  0  0  0
  -19.6640   11.2500   25.2530 C   0  0  0  0  0  0  0  0  0  0  0  0
  -19.6820   10.3080   24.7630 H   0  0  0  0  0  0  0  0  0  0  0  0
  -18.8920   12.2860   24.7280 C   0  0  0  0  0  0  0  0  0  0  0  0
  -18.3260   12.1320   23.8440 H   0  0  0  0  0  0  0  0  0  0  0  0
  -18.8660   13.5200   25.3690 C   0  0  0  0  0  0  0  0  0  0  0  0
  -18.2860   14.3190   24.9870 H   0  0  0  0  0  0  0  0  0  0  0  0
  1  2  1  0
  2  3  2  0
  2 28  1  0
  3  4  1  0
  3 22  1  0
  4  5  1  0
  4  6  1  0
  4  7  1  0
  7  8  1  0
  7 16  1  0
  7 19  1  0
  8  9  2  0
  8 10  1  0
 10 11  1  0
 10 12  1  0
 12 13  1  0
 12 14  1  0
 12 15  1  0
 16 17  1  0
 16 18  1  0
 16 19  1  0
 19 20  1  0
 19 21  1  0
 22 23  1  0
 22 24  2  0
 24 25  1  0
 24 26  1  0
 26 27  1  0
 26 28  2  0
 28 29  1  0
M  END
>  <EnInt_ele>  (1) 
-1.405828

>  <EnInt_vdw>  (1) 
0.7074735

>  <EnInt_tot>  (1) 
-0.6983548

>  <Charges>  (1) 
-0.19 0.19 -0.14 0.24 0.00 0.00 -0.10 0.63 -0.57 -0.73 0.37 0.30 0.00 0.00 0.00 -0.20 0.10 0.10 -0.20 0.10 0.10 -0.15 0.15 -0.15 0.15 -0.15 0.15 -0.15 0.15

$$$$
