
     RDKit          3D

 19 19  0  0  0  0  0  0  0  0999 V2000
  -21.1660   12.2230   24.5180 O   0  0  0  0  0  0  0  0  0  0  0  0
  -20.2280   12.6760   25.1710 C   0  0  0  0  0  0  0  0  0  0  0  0
  -20.3900   12.7090   26.5550 N   0  0  0  0  0  0  0  0  0  0  0  0
  -21.7130   12.5270   27.1360 C   0  0  0  0  0  0  0  0  0  0  0  0
  -21.8910   13.3230   27.8660 H   0  0  0  0  0  0  0  0  0  0  0  0
  -21.7420   11.5560   27.6400 H   0  0  0  0  0  0  0  0  0  0  0  0
  -22.5060   12.5620   26.3850 H   0  0  0  0  0  0  0  0  0  0  0  0
  -19.3040   12.8880   27.5100 C   0  0  0  0  0  0  0  0  0  0  0  0
  -19.4510   12.2060   28.3530 H   0  0  0  0  0  0  0  0  0  0  0  0
  -19.3240   13.9200   27.8730 H   0  0  0  0  0  0  0  0  0  0  0  0
  -18.3320   12.6660   27.0650 H   0  0  0  0  0  0  0  0  0  0  0  0
  -19.0060   13.1490   24.5470 C   0  0  0  0  0  0  0  0  0  0  0  0
  -17.9970   12.3380   24.1240 C   0  0  0  0  0  0  0  0  0  0  0  0
  -17.8780   11.2860   24.1730 H   0  0  0  0  0  0  0  0  0  0  0  0
  -17.0770   13.1460   23.5700 N   0  0  0  0  0  0  0  0  0  0  0  0
  -16.1820   12.8290   23.1520 H   0  0  0  0  0  0  0  0  0  0  0  0
  -17.4540   14.4530   23.6110 N   0  0  0  0  0  0  0  0  0  0  0  0
  -18.6200   14.4440   24.1920 C   0  0  0  0  0  0  0  0  0  0  0  0
  -19.1890   15.3240   24.3570 H   0  0  0  0  0  0  0  0  0  0  0  0
  1  2  2  0
  2  3  1  0
  2 12  1  0
  3  4  1  0
  3  8  1  0
  4  5  1  0
  4  6  1  0
  4  7  1  0
  8  9  1  0
  8 10  1  0
  8 11  1  0
 12 13  2  0
 12 18  1  0
 13 14  1  0
 13 15  1  0
 15 16  1  0
 15 17  1  0
 17 18  2  0
 18 19  1  0
M  END
>  <EnInt_ele>  (1) 
-18.88341

>  <EnInt_vdw>  (1) 
5.636491

>  <EnInt_tot>  (1) 
-13.24692

>  <Charges>  (1) 
-0.57 0.72 -0.66 0.30 0.00 0.00 0.00 0.30 0.00 0.00 0.00 -0.09 -0.30 0.15 0.30 0.27 -0.71 0.14 0.15

$$$$
