
     RDKit          3D

 19 19  0  0  0  0  0  0  0  0999 V2000
  -21.3640   12.2510   24.7050 O   0  0  0  0  0  0  0  0  0  0  0  0
  -20.4520   12.6520   25.4250 C   0  0  0  0  0  0  0  0  0  0  0  0
  -20.6990   12.6660   26.7970 N   0  0  0  0  0  0  0  0  0  0  0  0
  -22.0630   12.5280   27.2900 C   0  0  0  0  0  0  0  0  0  0  0  0
  -22.2540   13.3170   28.0250 H   0  0  0  0  0  0  0  0  0  0  0  0
  -22.1620   11.5500   27.7700 H   0  0  0  0  0  0  0  0  0  0  0  0
  -22.8050   12.6100   26.4920 H   0  0  0  0  0  0  0  0  0  0  0  0
  -19.6690   12.7830   27.8210 C   0  0  0  0  0  0  0  0  0  0  0  0
  -19.8970   12.0910   28.6380 H   0  0  0  0  0  0  0  0  0  0  0  0
  -19.6720   13.8070   28.2040 H   0  0  0  0  0  0  0  0  0  0  0  0
  -18.6810   12.5290   27.4330 H   0  0  0  0  0  0  0  0  0  0  0  0
  -19.1750   13.0860   24.8890 C   0  0  0  0  0  0  0  0  0  0  0  0
  -18.6380   12.6300   23.7220 C   0  0  0  0  0  0  0  0  0  0  0  0
  -18.9850   11.9100   23.0280 H   0  0  0  0  0  0  0  0  0  0  0  0
  -17.4850   13.3000   23.5580 N   0  0  0  0  0  0  0  0  0  0  0  0
  -16.8350   13.1770   22.7580 H   0  0  0  0  0  0  0  0  0  0  0  0
  -17.2550   14.1800   24.5690 N   0  0  0  0  0  0  0  0  0  0  0  0
  -18.2820   14.0510   25.3600 C   0  0  0  0  0  0  0  0  0  0  0  0
  -18.4050   14.6260   26.2440 H   0  0  0  0  0  0  0  0  0  0  0  0
  1  2  2  0
  2  3  1  0
  2 12  1  0
  3  4  1  0
  3  8  1  0
  4  5  1  0
  4  6  1  0
  4  7  1  0
  8  9  1  0
  8 10  1  0
  8 11  1  0
 12 13  2  0
 12 18  1  0
 13 14  1  0
 13 15  1  0
 15 16  1  0
 15 17  1  0
 17 18  2  0
 18 19  1  0
M  END
>  <EnInt_ele>  (1) 
-18.66339

>  <EnInt_vdw>  (1) 
6.886547

>  <EnInt_tot>  (1) 
-11.77684

>  <Charges>  (1) 
-0.57 0.72 -0.66 0.30 0.00 0.00 0.00 0.30 0.00 0.00 0.00 -0.09 -0.30 0.15 0.30 0.27 -0.71 0.14 0.15

$$$$
