
     RDKit          3D

 16 16  0  0  0  0  0  0  0  0999 V2000
  -19.3800   14.0190   25.7820 O   0  0  0  0  0  0  0  0  0  0  0  0
  -18.4040   14.7420   25.0320 C   0  0  0  0  0  0  0  0  0  0  0  0
  -17.5850   14.0700   24.7500 H   0  0  0  0  0  0  0  0  0  0  0  0
  -18.8570   15.1490   24.1200 H   0  0  0  0  0  0  0  0  0  0  0  0
  -17.8860   15.8370   25.9000 C   0  0  0  0  0  0  0  0  0  0  0  0
  -16.2250   15.9250   26.3120 S   0  0  0  0  0  0  0  0  0  0  0  0
  -16.6290   17.3100   27.2140 C   0  0  0  0  0  0  0  0  0  0  0  0
  -15.6790   17.9800   27.8870 N   0  0  0  0  0  0  0  0  0  0  0  0
  -14.7080   17.6950   27.8800 H   0  0  0  0  0  0  0  0  0  0  0  0
  -15.9190   18.8050   28.4240 H   0  0  0  0  0  0  0  0  0  0  0  0
  -17.8800   17.6480   27.2010 N   0  0  0  0  0  0  0  0  0  0  0  0
  -18.6140   16.7760   26.4250 N   0  0  0  0  0  0  0  0  0  0  0  0
  -18.7870   13.2970   26.8520 C   0  0  0  0  0  0  0  0  0  0  0  0
  -19.5780   12.7650   27.3890 H   0  0  0  0  0  0  0  0  0  0  0  0
  -18.2920   13.9810   27.5480 H   0  0  0  0  0  0  0  0  0  0  0  0
  -18.0700   12.5640   26.4700 H   0  0  0  0  0  0  0  0  0  0  0  0
  1  2  1  0
  1 13  1  0
  2  3  1  0
  2  4  1  0
  2  5  1  0
  5  6  1  0
  5 12  2  0
  6  7  1  0
  7  8  1  0
  7 11  2  0
  8  9  1  0
  8 10  1  0
 11 12  1  0
 13 14  1  0
 13 15  1  0
 13 16  1  0
M  END
>  <EnInt_ele>  (1) 
9.67653

>  <EnInt_vdw>  (1) 
0.4798708

>  <EnInt_tot>  (1) 
10.1564

>  <Charges>  (1) 
-0.56 0.46 0.00 0.00 0.20 -0.08 0.46 -0.88 0.40 0.40 -0.34 -0.34 0.28 0.00 0.00 0.00

$$$$
