
     RDKit          3D

 18 18  0  0  0  0  0  0  0  0999 V2000
  -22.4800   10.6340   27.3320 O   0  0  0  0  0  0  0  0  0  0  0  0
  -22.0560   11.7800   27.3420 C   0  0  0  0  0  0  0  0  0  0  0  0
  -22.8120   12.8870   27.6090 O   0  0  0  0  0  0  0  0  0  0  0  0
  -24.2110   12.6620   27.8400 C   0  0  0  0  0  0  0  0  0  0  0  0
  -24.2910   12.0240   28.7260 H   0  0  0  0  0  0  0  0  0  0  0  0
  -24.6680   12.1170   27.0060 H   0  0  0  0  0  0  0  0  0  0  0  0
  -24.9160   13.9810   28.0950 C   0  0  0  0  0  0  0  0  0  0  0  0
  -24.8490   14.6370   27.2210 H   0  0  0  0  0  0  0  0  0  0  0  0
  -24.4460   14.5130   28.9280 H   0  0  0  0  0  0  0  0  0  0  0  0
  -25.9710   13.8170   28.3300 H   0  0  0  0  0  0  0  0  0  0  0  0
  -20.6700   12.1060   27.0600 C   0  0  0  0  0  0  0  0  0  0  0  0
  -19.7500   11.3300   26.4180 C   0  0  0  0  0  0  0  0  0  0  0  0
  -19.8190   10.3620   25.9940 H   0  0  0  0  0  0  0  0  0  0  0  0
  -18.6150   12.0490   26.3950 N   0  0  0  0  0  0  0  0  0  0  0  0
  -17.7180   11.7360   25.9730 H   0  0  0  0  0  0  0  0  0  0  0  0
  -18.7640   13.2600   26.9980 N   0  0  0  0  0  0  0  0  0  0  0  0
  -20.0050   13.2860   27.3960 C   0  0  0  0  0  0  0  0  0  0  0  0
  -20.4370   14.1090   27.9080 H   0  0  0  0  0  0  0  0  0  0  0  0
  1  2  2  0
  2  3  1  0
  2 11  1  0
  3  4  1  0
  4  5  1  0
  4  6  1  0
  4  7  1  0
  7  8  1  0
  7  9  1  0
  7 10  1  0
 11 12  2  0
 11 17  1  0
 12 13  1  0
 12 14  1  0
 14 15  1  0
 14 16  1  0
 16 17  2  0
 17 18  1  0
M  END
>  <EnInt_ele>  (1) 
-4.46511

>  <EnInt_vdw>  (1) 
3.696127

>  <EnInt_tot>  (1) 
-0.7689833

>  <Charges>  (1) 
-0.57 0.81 -0.43 0.28 0.00 0.00 0.00 0.00 0.00 0.00 -0.09 -0.30 0.15 0.30 0.27 -0.71 0.14 0.15

$$$$
