
     RDKit          3D

 19 19  0  0  0  0  0  0  0  0999 V2000
  -23.5920   14.1420   28.4930 O   0  0  0  0  0  0  0  0  0  0  0  0
  -22.9370   13.1790   28.8840 C   0  0  0  0  0  0  0  0  0  0  0  0
  -23.2390   12.6920   30.1540 N   0  0  0  0  0  0  0  0  0  0  0  0
  -24.0470   13.4910   31.0650 C   0  0  0  0  0  0  0  0  0  0  0  0
  -23.5470   13.5300   32.0380 H   0  0  0  0  0  0  0  0  0  0  0  0
  -25.0240   13.0130   31.1760 H   0  0  0  0  0  0  0  0  0  0  0  0
  -24.1890   14.5140   30.7070 H   0  0  0  0  0  0  0  0  0  0  0  0
  -22.8270   11.3890   30.6590 C   0  0  0  0  0  0  0  0  0  0  0  0
  -23.6600   10.9360   31.2060 H   0  0  0  0  0  0  0  0  0  0  0  0
  -21.9820   11.5290   31.3400 H   0  0  0  0  0  0  0  0  0  0  0  0
  -22.5480   10.7100   29.8510 H   0  0  0  0  0  0  0  0  0  0  0  0
  -21.9010   12.5660   28.0730 C   0  0  0  0  0  0  0  0  0  0  0  0
  -22.0310   11.3660   27.4400 C   0  0  0  0  0  0  0  0  0  0  0  0
  -22.8290   10.6690   27.4210 H   0  0  0  0  0  0  0  0  0  0  0  0
  -20.8840   11.1730   26.7680 N   0  0  0  0  0  0  0  0  0  0  0  0
  -20.6700   10.3440   26.1820 H   0  0  0  0  0  0  0  0  0  0  0  0
  -20.0150   12.2070   26.9320 N   0  0  0  0  0  0  0  0  0  0  0  0
  -20.6390   13.0440   27.7120 C   0  0  0  0  0  0  0  0  0  0  0  0
  -20.2210   13.9720   28.0140 H   0  0  0  0  0  0  0  0  0  0  0  0
  1  2  2  0
  2  3  1  0
  2 12  1  0
  3  4  1  0
  3  8  1  0
  4  5  1  0
  4  6  1  0
  4  7  1  0
  8  9  1  0
  8 10  1  0
  8 11  1  0
 12 13  2  0
 12 18  1  0
 13 14  1  0
 13 15  1  0
 15 16  1  0
 15 17  1  0
 17 18  2  0
 18 19  1  0
M  END
>  <EnInt_ele>  (1) 
-16.29362

>  <EnInt_vdw>  (1) 
4.541766

>  <EnInt_tot>  (1) 
-11.75186

>  <Charges>  (1) 
-0.57 0.72 -0.66 0.30 0.00 0.00 0.00 0.30 0.00 0.00 0.00 -0.09 -0.30 0.15 0.30 0.27 -0.71 0.14 0.15

$$$$
