
     RDKit          3D

 23 23  0  0  0  0  0  0  0  0999 V2000
  -18.5690   11.3920   24.4790 S   0  0  0  0  0  0  0  0  0  0  0  0
  -19.2390   11.7510   23.2390 O   0  0  0  0  0  0  0  0  0  0  0  0
  -17.1460   11.6180   24.6440 O   0  0  0  0  0  0  0  0  0  0  0  0
  -18.8970    9.6760   24.7880 C   0  0  0  0  0  0  0  0  0  0  0  0
  -19.9760    9.5120   24.7760 H   0  0  0  0  0  0  0  0  0  0  0  0
  -18.4730    9.3970   25.7550 H   0  0  0  0  0  0  0  0  0  0  0  0
  -18.4250    9.0930   23.9960 H   0  0  0  0  0  0  0  0  0  0  0  0
  -19.3990   12.2100   25.8130 C   0  0  0  0  0  0  0  0  0  0  0  0
  -19.0650   13.5080   26.2350 C   0  0  0  0  0  0  0  0  0  0  0  0
  -18.0310   14.1940   25.6040 N   0  0  0  0  0  0  0  0  0  0  0  0
  -17.6330   13.7610   24.7580 H   0  0  0  0  0  0  0  0  0  0  0  0
  -17.4530   15.4390   26.0500 C   0  0  0  0  0  0  0  0  0  0  0  0
  -18.2110   16.2270   26.1110 H   0  0  0  0  0  0  0  0  0  0  0  0
  -16.6920   15.7650   25.3340 H   0  0  0  0  0  0  0  0  0  0  0  0
  -16.9660   15.3220   27.0230 H   0  0  0  0  0  0  0  0  0  0  0  0
  -19.7890   14.1190   27.2680 C   0  0  0  0  0  0  0  0  0  0  0  0
  -19.5630   15.1070   27.5730 H   0  0  0  0  0  0  0  0  0  0  0  0
  -20.8130   13.4290   27.9030 C   0  0  0  0  0  0  0  0  0  0  0  0
  -21.3540   13.8890   28.6900 H   0  0  0  0  0  0  0  0  0  0  0  0
  -21.1290   12.1330   27.5110 C   0  0  0  0  0  0  0  0  0  0  0  0
  -21.9070   11.6040   28.0030 H   0  0  0  0  0  0  0  0  0  0  0  0
  -20.4280   11.5310   26.4710 C   0  0  0  0  0  0  0  0  0  0  0  0
  -20.6770   10.5440   26.1740 H   0  0  0  0  0  0  0  0  0  0  0  0
  1  2  2  0
  1  3  2  0
  1  4  1  0
  1  8  1  0
  4  5  1  0
  4  6  1  0
  4  7  1  0
  8  9  2  0
  8 22  1  0
  9 10  1  0
  9 16  1  0
 10 11  1  0
 10 12  1  0
 12 13  1  0
 12 14  1  0
 12 15  1  0
 16 17  1  0
 16 18  2  0
 18 19  1  0
 18 20  1  0
 20 21  1  0
 20 22  2  0
 22 23  1  0
M  END
>  <EnInt_ele>  (1) 
17.12721

>  <EnInt_vdw>  (1) 
-0.7667155

>  <EnInt_tot>  (1) 
16.3605

>  <Charges>  (1) 
1.20 -0.65 -0.65 0.10 0.00 0.00 0.00 -0.01 0.10 -0.87 0.40 0.37 0.00 0.00 0.00 -0.15 0.15 -0.15 0.15 -0.15 0.15 -0.15 0.15

$$$$
