
     RDKit          3D

 32 33  0  0  0  0  0  0  0  0999 V2000
  -19.5240   19.9740   27.0830 O   0  0  0  0  0  0  0  0  0  0  0  0
  -18.6680   19.7790   27.9330 C   0  0  0  0  0  0  0  0  0  0  0  0
  -18.3940   20.6030   28.9780 O   0  0  0  0  0  0  0  0  0  0  0  0
  -19.2920   21.7080   29.1100 C   0  0  0  0  0  0  0  0  0  0  0  0
  -20.3150   21.3530   29.2610 H   0  0  0  0  0  0  0  0  0  0  0  0
  -19.2310   22.3550   28.2290 H   0  0  0  0  0  0  0  0  0  0  0  0
  -18.9900   22.2860   29.9870 H   0  0  0  0  0  0  0  0  0  0  0  0
  -17.8180   18.7160   27.9670 N   0  0  0  0  0  0  0  0  0  0  0  0
  -17.1230   18.7710   28.7180 H   0  0  0  0  0  0  0  0  0  0  0  0
  -17.7610   17.5880   27.1190 C   0  0  0  0  0  0  0  0  0  0  0  0
  -16.5680   16.9420   26.7850 C   0  0  0  0  0  0  0  0  0  0  0  0
  -15.6420   17.2890   27.1600 H   0  0  0  0  0  0  0  0  0  0  0  0
  -16.6030   15.8360   25.9430 C   0  0  0  0  0  0  0  0  0  0  0  0
  -15.6970   15.3470   25.6890 H   0  0  0  0  0  0  0  0  0  0  0  0
  -17.8150   15.3700   25.4290 C   0  0  0  0  0  0  0  0  0  0  0  0
  -17.8430   14.1800   24.4960 C   0  0  0  0  0  0  0  0  0  0  0  0
  -16.8570   14.0650   24.0260 H   0  0  0  0  0  0  0  0  0  0  0  0
  -18.5260   14.3770   23.6600 H   0  0  0  0  0  0  0  0  0  0  0  0
  -18.2390   12.8950   25.1780 C   0  0  0  0  0  0  0  0  0  0  0  0
  -18.6830   11.7980   24.4490 C   0  0  0  0  0  0  0  0  0  0  0  0
  -18.7360   11.8370   23.3920 H   0  0  0  0  0  0  0  0  0  0  0  0
  -19.0640   10.6350   25.1110 C   0  0  0  0  0  0  0  0  0  0  0  0
  -19.4050    9.7940   24.5620 H   0  0  0  0  0  0  0  0  0  0  0  0
  -19.0170   10.5350   26.4380 N   0  0  0  0  0  0  0  0  0  0  0  0
  -18.5980   11.5740   27.1580 C   0  0  0  0  0  0  0  0  0  0  0  0
  -18.5730   11.4700   28.2130 H   0  0  0  0  0  0  0  0  0  0  0  0
  -18.2030   12.7670   26.5610 C   0  0  0  0  0  0  0  0  0  0  0  0
  -17.8800   13.5760   27.1660 H   0  0  0  0  0  0  0  0  0  0  0  0
  -18.9990   16.0330   25.7600 C   0  0  0  0  0  0  0  0  0  0  0  0
  -19.9250   15.6940   25.3730 H   0  0  0  0  0  0  0  0  0  0  0  0
  -18.9760   17.1400   26.6020 C   0  0  0  0  0  0  0  0  0  0  0  0
  -19.8770   17.6360   26.8530 H   0  0  0  0  0  0  0  0  0  0  0  0
  1  2  2  0
  2  3  1  0
  2  8  1  0
  3  4  1  0
  4  5  1  0
  4  6  1  0
  4  7  1  0
  8  9  1  0
  8 10  1  0
 10 11  2  0
 10 31  1  0
 11 12  1  0
 11 13  1  0
 13 14  1  0
 13 15  2  0
 15 16  1  0
 15 29  1  0
 16 17  1  0
 16 18  1  0
 16 19  1  0
 19 20  2  0
 19 27  1  0
 20 21  1  0
 20 22  1  0
 22 23  1  0
 22 24  2  0
 24 25  1  0
 25 26  1  0
 25 27  2  0
 27 28  1  0
 29 30  1  0
 29 31  2  0
 31 32  1  0
M  END
>  <EnInt_ele>  (1) 
4.208727

>  <EnInt_vdw>  (1) 
4.131198

>  <EnInt_tot>  (1) 
8.339926

>  <Charges>  (1) 
-0.57 0.78 -0.43 0.28 0.00 0.00 0.00 -0.55 0.37 0.12 -0.15 0.15 -0.15 0.15 -0.14 0.29 0.00 0.00 -0.14 -0.15 0.15 0.16 0.15 -0.62 0.16 0.15 -0.15 0.15 -0.15 0.15 -0.15 0.15

$$$$
