
     RDKit          3D

 14 14  0  0  0  0  0  0  0  0999 V2000
  -19.5040   10.7660   25.0810 O   0  0  0  0  0  0  0  0  0  0  0  0
  -19.1340   11.7600   24.3960 C   0  0  0  0  0  0  0  0  0  0  0  0
  -19.2600   11.7340   23.1360 O   0  0  0  0  0  0  0  0  0  0  0  0
  -18.5680   12.9300   25.0550 C   0  0  0  0  0  0  0  0  0  0  0  0
  -18.4180   13.1380   26.4160 C   0  0  0  0  0  0  0  0  0  0  0  0
  -18.8240   12.1630   27.4830 C   0  0  0  0  0  0  0  0  0  0  0  0
  -18.6070   12.5550   28.4820 H   0  0  0  0  0  0  0  0  0  0  0  0
  -18.2760   11.2210   27.3740 H   0  0  0  0  0  0  0  0  0  0  0  0
  -19.9000   11.9650   27.4360 H   0  0  0  0  0  0  0  0  0  0  0  0
  -17.8330   14.3770   26.7240 C   0  0  0  0  0  0  0  0  0  0  0  0
  -17.6390   14.7050   27.7120 H   0  0  0  0  0  0  0  0  0  0  0  0
  -17.5360   15.1180   25.6170 C   0  0  0  0  0  0  0  0  0  0  0  0
  -17.0940   16.0800   25.5850 H   0  0  0  0  0  0  0  0  0  0  0  0
  -17.9720   14.3030   24.1660 S   0  0  0  0  0  0  0  0  0  0  0  0
  1  2  1  0
  2  3  2  0
  2  4  1  0
  4  5  2  0
  4 14  1  0
  5  6  1  0
  5 10  1  0
  6  7  1  0
  6  8  1  0
  6  9  1  0
 10 11  1  0
 10 12  2  0
 12 13  1  0
 12 14  1  0
M  END
>  <EnInt_ele>  (1) 
-1.135808

>  <EnInt_vdw>  (1) 
1.717264

>  <EnInt_tot>  (1) 
0.5814559

>  <Charges>  (1) 
-0.15 0.81 -0.57 -0.04 -0.18 0.18 0.00 0.00 0.00 -0.15 0.15 -0.11 0.15 -0.08

$$$$
