
     RDKit          3D

 29 31  0  0  0  0  0  0  0  0999 V2000
  -15.0440   17.2140   27.6660 O   0  0  0  0  0  0  0  0  0  0  0  0
  -15.0240   17.4580   26.4800 C   0  0  0  0  0  0  0  0  0  0  0  0
  -15.7850   16.7600   25.5920 N   0  0  0  0  0  0  0  0  0  0  0  0
  -15.6890   17.0190   24.6070 H   0  0  0  0  0  0  0  0  0  0  0  0
  -16.6780   15.7370   25.8090 C   0  0  0  0  0  0  0  0  0  0  0  0
  -17.2650   15.3500   27.3980 S   0  0  0  0  0  0  0  0  0  0  0  0
  -18.2130   14.0920   26.6830 C   0  0  0  0  0  0  0  0  0  0  0  0
  -18.0020   14.0760   25.3050 C   0  0  0  0  0  0  0  0  0  0  0  0
  -17.1170   15.0290   24.8170 N   0  0  0  0  0  0  0  0  0  0  0  0
  -18.6820   13.1240   24.5260 C   0  0  0  0  0  0  0  0  0  0  0  0
  -18.5250   13.1060   23.4800 H   0  0  0  0  0  0  0  0  0  0  0  0
  -19.5450   12.2210   25.1300 C   0  0  0  0  0  0  0  0  0  0  0  0
  -20.0550   11.5060   24.5390 H   0  0  0  0  0  0  0  0  0  0  0  0
  -19.7400   12.2620   26.5290 C   0  0  0  0  0  0  0  0  0  0  0  0
  -20.5670   11.4240   27.2350 O   0  0  0  0  0  0  0  0  0  0  0  0
  -21.7790   11.9750   27.7370 C   0  0  0  0  0  0  0  0  0  0  0  0
  -22.4240   12.3170   26.9210 H   0  0  0  0  0  0  0  0  0  0  0  0
  -22.3110   11.1810   28.2700 H   0  0  0  0  0  0  0  0  0  0  0  0
  -21.5810   12.7800   28.4510 H   0  0  0  0  0  0  0  0  0  0  0  0
  -19.0810   13.1910   27.3140 C   0  0  0  0  0  0  0  0  0  0  0  0
  -19.2270   13.2180   28.3620 H   0  0  0  0  0  0  0  0  0  0  0  0
  -14.1910   18.5380   25.9080 C   0  0  0  0  0  0  0  0  0  0  0  0
  -13.1350   18.2880   25.8530 H   0  0  0  0  0  0  0  0  0  0  0  0
  -14.5480   19.9910   26.1170 C   0  0  0  0  0  0  0  0  0  0  0  0
  -15.4470   20.2440   26.6680 H   0  0  0  0  0  0  0  0  0  0  0  0
  -13.7380   20.6980   26.2440 H   0  0  0  0  0  0  0  0  0  0  0  0
  -14.7260   19.3660   24.7640 C   0  0  0  0  0  0  0  0  0  0  0  0
  -14.0350   19.6470   23.9780 H   0  0  0  0  0  0  0  0  0  0  0  0
  -15.7360   19.1770   24.4190 H   0  0  0  0  0  0  0  0  0  0  0  0
  1  2  2  0
  2  3  1  0
  2 22  1  0
  3  4  1  0
  3  5  1  0
  5  6  1  0
  5  9  2  0
  6  7  1  0
  7  8  2  0
  7 20  1  0
  8  9  1  0
  8 10  1  0
 10 11  1  0
 10 12  2  0
 12 13  1  0
 12 14  1  0
 14 15  1  0
 14 20  2  0
 15 16  1  0
 16 17  1  0
 16 18  1  0
 16 19  1  0
 20 21  1  0
 22 23  1  0
 22 24  1  0
 22 27  1  0
 24 25  1  0
 24 26  1  0
 24 27  1  0
 27 28  1  0
 27 29  1  0
M  END
>  <EnInt_ele>  (1) 
7.601087

>  <EnInt_vdw>  (1) 
3.492038

>  <EnInt_tot>  (1) 
11.09313

>  <Charges>  (1) 
-0.57 0.63 -0.49 0.37 0.44 -0.08 0.04 0.23 -0.57 -0.15 0.15 -0.15 0.15 0.08 -0.36 0.28 0.00 0.00 0.00 -0.15 0.15 -0.10 0.10 -0.20 0.10 0.10 -0.20 0.10 0.10

$$$$
