
     RDKit          3D

 25 27  0  0  0  0  0  0  0  0999 V2000
  -19.9310   12.6070   28.5940 O   0  0  0  0  0  0  0  0  0  0  0  0
  -20.8960   12.5540   27.8350 C   0  0  0  0  0  0  0  0  0  0  0  0
  -20.6680   12.4930   26.4930 N   0  0  0  0  0  0  0  0  0  0  0  0
  -21.5130   12.4360   25.9020 H   0  0  0  0  0  0  0  0  0  0  0  0
  -19.3780   12.4940   25.8870 C   0  0  0  0  0  0  0  0  0  0  0  0
  -18.6820   13.1740   26.3730 H   0  0  0  0  0  0  0  0  0  0  0  0
  -19.2300   12.3370   24.3980 C   0  0  0  0  0  0  0  0  0  0  0  0
  -20.1180   12.1790   23.7980 H   0  0  0  0  0  0  0  0  0  0  0  0
  -18.4560   12.9140   23.9050 H   0  0  0  0  0  0  0  0  0  0  0  0
  -18.8010   11.2290   25.3150 C   0  0  0  0  0  0  0  0  0  0  0  0
  -17.7400   11.0560   25.4480 H   0  0  0  0  0  0  0  0  0  0  0  0
  -19.4060   10.3300   25.3440 H   0  0  0  0  0  0  0  0  0  0  0  0
  -22.2740   12.5450   28.2680 C   0  0  0  0  0  0  0  0  0  0  0  0
  -22.7280   12.2140   29.5200 C   0  0  0  0  0  0  0  0  0  0  0  0
  -24.0930   12.3560   29.4400 N   0  0  0  0  0  0  0  0  0  0  0  0
  -24.5130   12.7600   28.2110 N   0  0  0  0  0  0  0  0  0  0  0  0
  -23.4050   12.8680   27.5190 C   0  0  0  0  0  0  0  0  0  0  0  0
  -23.3850   13.1710   26.5010 H   0  0  0  0  0  0  0  0  0  0  0  0
  -24.9190   12.1000   30.5410 C   0  0  0  0  0  0  0  0  0  0  0  0
  -25.9570   12.2370   30.3820 H   0  0  0  0  0  0  0  0  0  0  0  0
  -24.2890   11.7040   31.6890 C   0  0  0  0  0  0  0  0  0  0  0  0
  -24.8440   11.4900   32.5650 H   0  0  0  0  0  0  0  0  0  0  0  0
  -22.8620   11.5670   31.7340 C   0  0  0  0  0  0  0  0  0  0  0  0
  -22.3970   11.2580   32.6340 H   0  0  0  0  0  0  0  0  0  0  0  0
  -22.0970   11.8070   30.7040 N   0  0  0  0  0  0  0  0  0  0  0  0
  1  2  2  0
  2  3  1  0
  2 13  1  0
  3  4  1  0
  3  5  1  0
  5  6  1  0
  5  7  1  0
  5 10  1  0
  7  8  1  0
  7  9  1  0
  7 10  1  0
 10 11  1  0
 10 12  1  0
 13 14  2  0
 13 17  1  0
 14 15  1  0
 14 25  1  0
 15 16  1  0
 15 19  1  0
 16 17  2  0
 17 18  1  0
 19 20  1  0
 19 21  2  0
 21 22  1  0
 21 23  1  0
 23 24  1  0
 23 25  2  0
M  END
>  <EnInt_ele>  (1) 
-0.9044577

>  <EnInt_vdw>  (1) 
4.128317

>  <EnInt_tot>  (1) 
3.22386

>  <Charges>  (1) 
-0.57 0.72 -0.58 0.37 0.05 0.10 -0.20 0.10 0.10 -0.20 0.10 0.10 -0.09 -0.03 0.60 -0.71 0.14 0.15 -0.18 0.15 -0.14 0.15 0.38 0.06 -0.58

$$$$
