
     RDKit          3D

 25 27  0  0  0  0  0  0  0  0999 V2000
  -22.6150   12.9240   26.4770 O   0  0  0  0  0  0  0  0  0  0  0  0
  -22.3480   12.5640   27.6220 C   0  0  0  0  0  0  0  0  0  0  0  0
  -21.0570   12.2440   27.9200 N   0  0  0  0  0  0  0  0  0  0  0  0
  -20.8860   11.9620   28.8990 H   0  0  0  0  0  0  0  0  0  0  0  0
  -19.9750   12.2840   26.9940 C   0  0  0  0  0  0  0  0  0  0  0  0
  -20.1710   11.7140   26.0880 H   0  0  0  0  0  0  0  0  0  0  0  0
  -18.5510   12.3000   27.4780 C   0  0  0  0  0  0  0  0  0  0  0  0
  -18.3620   12.3250   28.5450 H   0  0  0  0  0  0  0  0  0  0  0  0
  -17.8190   11.7400   26.9090 H   0  0  0  0  0  0  0  0  0  0  0  0
  -19.1410   13.5260   26.8450 C   0  0  0  0  0  0  0  0  0  0  0  0
  -18.8150   13.7950   25.8480 H   0  0  0  0  0  0  0  0  0  0  0  0
  -19.3630   14.3720   27.4850 H   0  0  0  0  0  0  0  0  0  0  0  0
  -23.3140   12.4630   28.6910 C   0  0  0  0  0  0  0  0  0  0  0  0
  -24.5310   13.0940   28.7460 C   0  0  0  0  0  0  0  0  0  0  0  0
  -25.0760   12.6870   29.9410 N   0  0  0  0  0  0  0  0  0  0  0  0
  -24.2680   11.8380   30.6300 N   0  0  0  0  0  0  0  0  0  0  0  0
  -23.2120   11.7140   29.8630 C   0  0  0  0  0  0  0  0  0  0  0  0
  -22.3790   11.1080   30.1180 H   0  0  0  0  0  0  0  0  0  0  0  0
  -26.3370   13.1310   30.3560 C   0  0  0  0  0  0  0  0  0  0  0  0
  -26.6720   12.7640   31.2920 H   0  0  0  0  0  0  0  0  0  0  0  0
  -26.9860   13.9860   29.5070 C   0  0  0  0  0  0  0  0  0  0  0  0
  -27.9430   14.3670   29.7510 H   0  0  0  0  0  0  0  0  0  0  0  0
  -26.3850   14.3870   28.2680 C   0  0  0  0  0  0  0  0  0  0  0  0
  -26.9070   15.0500   27.6270 H   0  0  0  0  0  0  0  0  0  0  0  0
  -25.2090   13.9690   27.8860 N   0  0  0  0  0  0  0  0  0  0  0  0
  1  2  2  0
  2  3  1  0
  2 13  1  0
  3  4  1  0
  3  5  1  0
  5  6  1  0
  5  7  1  0
  5 10  1  0
  7  8  1  0
  7  9  1  0
  7 10  1  0
 10 11  1  0
 10 12  1  0
 13 14  2  0
 13 17  1  0
 14 15  1  0
 14 25  1  0
 15 16  1  0
 15 19  1  0
 16 17  2  0
 17 18  1  0
 19 20  1  0
 19 21  2  0
 21 22  1  0
 21 23  1  0
 23 24  1  0
 23 25  2  0
M  END
>  <EnInt_ele>  (1) 
-9.326731

>  <EnInt_vdw>  (1) 
3.598141

>  <EnInt_tot>  (1) 
-5.72859

>  <Charges>  (1) 
-0.57 0.72 -0.58 0.37 0.05 0.10 -0.20 0.10 0.10 -0.20 0.10 0.10 -0.09 -0.03 0.60 -0.71 0.14 0.15 -0.18 0.15 -0.14 0.15 0.38 0.06 -0.58

$$$$
