
     RDKit          3D

 24 25  0  0  0  0  0  0  0  0999 V2000
  -17.3340   13.3640   23.5150 F   0  0  0  0  0  0  0  0  0  0  0  0
  -18.1280   13.0560   24.5520 C   0  0  0  0  0  0  0  0  0  0  0  0
  -18.4210   14.0130   25.5440 C   0  0  0  0  0  0  0  0  0  0  0  0
  -17.9300   15.3060   25.5310 N   0  0  0  0  0  0  0  0  0  0  0  0
  -17.7870   15.7990   24.6540 H   0  0  0  0  0  0  0  0  0  0  0  0
  -17.5700   16.0870   26.7060 C   0  0  0  0  0  0  0  0  0  0  0  0
  -18.3710   16.8070   26.9200 H   0  0  0  0  0  0  0  0  0  0  0  0
  -17.4750   15.4180   27.5690 H   0  0  0  0  0  0  0  0  0  0  0  0
  -16.2860   16.8610   26.5880 C   0  0  0  0  0  0  0  0  0  0  0  0
  -15.1600   16.3930   27.0690 N   0  0  0  0  0  0  0  0  0  0  0  0
  -14.2320   17.3460   26.7840 N   0  0  0  0  0  0  0  0  0  0  0  0
  -13.2340   17.2560   27.0460 H   0  0  0  0  0  0  0  0  0  0  0  0
  -14.7710   18.3950   26.1290 C   0  0  0  0  0  0  0  0  0  0  0  0
  -14.2000   19.2330   25.8210 H   0  0  0  0  0  0  0  0  0  0  0  0
  -16.0820   18.1020   25.9920 C   0  0  0  0  0  0  0  0  0  0  0  0
  -16.8180   18.6990   25.5160 H   0  0  0  0  0  0  0  0  0  0  0  0
  -19.2450   13.6380   26.6080 C   0  0  0  0  0  0  0  0  0  0  0  0
  -19.4670   14.3360   27.3730 H   0  0  0  0  0  0  0  0  0  0  0  0
  -19.7720   12.3480   26.6630 C   0  0  0  0  0  0  0  0  0  0  0  0
  -20.4000   12.0720   27.4710 H   0  0  0  0  0  0  0  0  0  0  0  0
  -19.4830   11.4160   25.6640 C   0  0  0  0  0  0  0  0  0  0  0  0
  -19.8900   10.4390   25.7160 H   0  0  0  0  0  0  0  0  0  0  0  0
  -18.6540   11.7730   24.6020 C   0  0  0  0  0  0  0  0  0  0  0  0
  -18.4200   11.0730   23.8420 H   0  0  0  0  0  0  0  0  0  0  0  0
  1  2  1  0
  2  3  2  0
  2 23  1  0
  3  4  1  0
  3 17  1  0
  4  5  1  0
  4  6  1  0
  6  7  1  0
  6  8  1  0
  6  9  1  0
  9 10  2  0
  9 15  1  0
 10 11  1  0
 11 12  1  0
 11 13  1  0
 13 14  1  0
 13 15  2  0
 15 16  1  0
 17 18  1  0
 17 19  2  0
 19 20  1  0
 19 21  1  0
 21 22  1  0
 21 23  2  0
 23 24  1  0
M  END
>  <EnInt_ele>  (1) 
1.101244

>  <EnInt_vdw>  (1) 
-0.4836313

>  <EnInt_tot>  (1) 
0.6176131

>  <Charges>  (1) 
-0.19 0.19 0.10 -0.87 0.40 0.55 0.00 0.00 0.11 -0.71 0.30 0.27 -0.30 0.15 -0.15 0.15 -0.15 0.15 -0.15 0.15 -0.15 0.15 -0.15 0.15

$$$$
