
     RDKit          3D

 26 26  0  0  1  0  0  0  0  0999 V2000
  -23.3760   13.8930   32.6230 F   0  0  0  0  0  0  0  0  0  0  0  0
  -23.2450   12.7950   31.8630 C   0  0  0  0  0  0  0  0  0  0  0  0
  -23.7560   12.7250   30.5540 C   0  0  0  0  0  0  0  0  0  0  0  0
  -24.4100   13.8120   29.9520 N   0  0  0  0  0  0  0  0  0  0  0  0
  -25.4130   13.5150   28.9020 C   0  0  0  0  0  0  0  0  0  0  0  0
  -24.8380   13.7690   27.4970 C   0  0  0  0  0  0  0  0  0  0  0  0
  -24.8070   14.8430   27.2840 H   0  0  0  0  0  0  0  0  0  0  0  0
  -25.4480   13.2970   26.7200 H   0  0  0  0  0  0  0  0  0  0  0  0
  -23.5110   13.2610   27.3700 O   0  0  0  0  0  0  0  0  0  0  0  0
  -23.5300   12.3980   27.8220 H   0  0  0  0  0  0  0  0  0  0  0  0
  -26.7240   14.2820   29.1130 C   0  0  0  0  0  0  0  0  0  0  0  0
  -27.4960   13.8990   28.4360 H   0  0  0  0  0  0  0  0  0  0  0  0
  -26.6250   15.3520   28.9080 H   0  0  0  0  0  0  0  0  0  0  0  0
  -27.0900   14.1610   30.1380 H   0  0  0  0  0  0  0  0  0  0  0  0
  -24.1130   15.1790   30.3560 C   0  0  0  0  0  0  0  0  0  0  0  0
  -24.5780   15.4070   31.3210 H   0  0  0  0  0  0  0  0  0  0  0  0
  -24.4750   15.9160   29.6340 H   0  0  0  0  0  0  0  0  0  0  0  0
  -23.0310   15.3480   30.4200 H   0  0  0  0  0  0  0  0  0  0  0  0
  -23.6280   11.6130   29.8140 N   0  0  0  0  0  0  0  0  0  0  0  0
  -23.0130   10.5520   30.3500 C   0  0  0  0  0  0  0  0  0  0  0  0
  -22.9250    9.6810   29.7540 H   0  0  0  0  0  0  0  0  0  0  0  0
  -22.4950   10.5610   31.6470 C   0  0  0  0  0  0  0  0  0  0  0  0
  -22.0160    9.6980   32.0320 H   0  0  0  0  0  0  0  0  0  0  0  0
  -22.6080   11.7070   32.4300 C   0  0  0  0  0  0  0  0  0  0  0  0
  -22.2250   11.7520   33.4160 H   0  0  0  0  0  0  0  0  0  0  0  0
  -25.7020   12.4570   28.9610 H   0  0  0  0  0  0  0  0  0  0  0  0
  1  2  1  0
  2  3  2  0
  2 24  1  0
  3  4  1  0
  3 19  1  0
  4  5  1  0
  4 15  1  0
  5  6  1  0
  5 11  1  0
  5 26  1  0
  6  7  1  0
  6  8  1  0
  6  9  1  0
  9 10  1  0
 11 12  1  0
 11 13  1  0
 11 14  1  0
 15 16  1  0
 15 17  1  0
 15 18  1  0
 19 20  2  0
 20 21  1  0
 20 22  1  0
 22 23  1  0
 22 24  2  0
 24 25  1  0
M  END
>  <EnInt_ele>  (1) 
1.016225

>  <EnInt_vdw>  (1) 
1.379645

>  <EnInt_tot>  (1) 
2.395871

>  <Charges>  (1) 
-0.19 0.19 0.41 -0.84 0.37 0.28 0.00 0.00 -0.68 0.40 0.00 0.00 0.00 0.00 0.37 0.00 0.00 0.00 -0.62 0.16 0.15 -0.15 0.15 -0.15 0.15 0.00

$$$$
