
     RDKit          3D

 26 26  0  0  1  0  0  0  0  0999 V2000
  -21.4140   10.2170   26.7130 F   0  0  0  0  0  0  0  0  0  0  0  0
  -21.7340   11.3710   27.3190 C   0  0  0  0  0  0  0  0  0  0  0  0
  -20.8430   12.4590   27.3740 C   0  0  0  0  0  0  0  0  0  0  0  0
  -19.5760   12.4140   26.7710 N   0  0  0  0  0  0  0  0  0  0  0  0
  -19.5190   12.3690   25.2910 C   0  0  0  0  0  0  0  0  0  0  0  0
  -18.9700   11.0180   24.7970 C   0  0  0  0  0  0  0  0  0  0  0  0
  -19.3870   10.7720   23.8150 H   0  0  0  0  0  0  0  0  0  0  0  0
  -19.2300   10.2030   25.4800 H   0  0  0  0  0  0  0  0  0  0  0  0
  -17.5490   11.0400   24.6740 O   0  0  0  0  0  0  0  0  0  0  0  0
  -17.3800   11.4280   23.7970 H   0  0  0  0  0  0  0  0  0  0  0  0
  -18.7260   13.5410   24.7010 C   0  0  0  0  0  0  0  0  0  0  0  0
  -18.8640   13.5790   23.6140 H   0  0  0  0  0  0  0  0  0  0  0  0
  -17.6500   13.4560   24.8810 H   0  0  0  0  0  0  0  0  0  0  0  0
  -19.0690   14.4950   25.1140 H   0  0  0  0  0  0  0  0  0  0  0  0
  -18.3650   12.4190   27.5800 C   0  0  0  0  0  0  0  0  0  0  0  0
  -18.1650   13.4210   27.9720 H   0  0  0  0  0  0  0  0  0  0  0  0
  -17.4830   12.1050   27.0130 H   0  0  0  0  0  0  0  0  0  0  0  0
  -18.4390   11.7070   28.4110 H   0  0  0  0  0  0  0  0  0  0  0  0
  -21.1740   13.6000   27.9980 N   0  0  0  0  0  0  0  0  0  0  0  0
  -22.3720   13.6840   28.5880 C   0  0  0  0  0  0  0  0  0  0  0  0
  -22.6150   14.5910   29.0810 H   0  0  0  0  0  0  0  0  0  0  0  0
  -23.2920   12.6340   28.5740 C   0  0  0  0  0  0  0  0  0  0  0  0
  -24.2290   12.7450   29.0550 H   0  0  0  0  0  0  0  0  0  0  0  0
  -22.9740   11.4440   27.9250 C   0  0  0  0  0  0  0  0  0  0  0  0
  -23.6470   10.6270   27.8900 H   0  0  0  0  0  0  0  0  0  0  0  0
  -20.5310   12.4900   24.8820 H   0  0  0  0  0  0  0  0  0  0  0  0
  1  2  1  0
  2  3  2  0
  2 24  1  0
  3  4  1  0
  3 19  1  0
  4  5  1  0
  4 15  1  0
  5  6  1  0
  5 11  1  0
  5 26  1  0
  6  7  1  0
  6  8  1  0
  6  9  1  0
  9 10  1  0
 11 12  1  0
 11 13  1  0
 11 14  1  0
 15 16  1  0
 15 17  1  0
 15 18  1  0
 19 20  2  0
 20 21  1  0
 20 22  1  0
 22 23  1  0
 22 24  2  0
 24 25  1  0
M  END
>  <EnInt_ele>  (1) 
-0.1274044

>  <EnInt_vdw>  (1) 
12.69802

>  <EnInt_tot>  (1) 
12.57061

>  <Charges>  (1) 
-0.19 0.19 0.41 -0.84 0.37 0.28 0.00 0.00 -0.68 0.40 0.00 0.00 0.00 0.00 0.37 0.00 0.00 0.00 -0.62 0.16 0.15 -0.15 0.15 -0.15 0.15 0.00

$$$$
