
     RDKit          3D

 23 23  0  0  0  0  0  0  0  0999 V2000
  -24.2940   12.4080   30.0040 Cl  0  0  0  0  0  0  0  0  0  0  0  0
  -22.9650   12.5300   28.9150 C   0  0  0  0  0  0  0  0  0  0  0  0
  -23.0720   13.0510   27.6160 C   0  0  0  0  0  0  0  0  0  0  0  0
  -24.3100   13.5640   26.9930 C   0  0  0  0  0  0  0  0  0  0  0  0
  -24.7760   14.6930   27.0330 O   0  0  0  0  0  0  0  0  0  0  0  0
  -25.0640   12.6960   26.2730 N   0  0  0  0  0  0  0  0  0  0  0  0
  -25.9300   13.0430   25.8420 H   0  0  0  0  0  0  0  0  0  0  0  0
  -24.7650   11.7170   26.1810 H   0  0  0  0  0  0  0  0  0  0  0  0
  -21.9540   13.0980   26.8480 N   0  0  0  0  0  0  0  0  0  0  0  0
  -20.7940   12.6620   27.3140 C   0  0  0  0  0  0  0  0  0  0  0  0
  -19.5820   12.7380   26.4200 C   0  0  0  0  0  0  0  0  0  0  0  0
  -19.9260   12.7870   25.3780 H   0  0  0  0  0  0  0  0  0  0  0  0
  -18.7710   14.0000   26.7040 C   0  0  0  0  0  0  0  0  0  0  0  0
  -18.3730   14.0060   27.7260 H   0  0  0  0  0  0  0  0  0  0  0  0
  -19.3880   14.8980   26.5840 H   0  0  0  0  0  0  0  0  0  0  0  0
  -17.9240   14.0800   26.0140 H   0  0  0  0  0  0  0  0  0  0  0  0
  -18.7190   11.4850   26.5660 C   0  0  0  0  0  0  0  0  0  0  0  0
  -18.3180   11.3850   27.5810 H   0  0  0  0  0  0  0  0  0  0  0  0
  -17.8710   11.5160   25.8720 H   0  0  0  0  0  0  0  0  0  0  0  0
  -19.2990   10.5810   26.3480 H   0  0  0  0  0  0  0  0  0  0  0  0
  -20.6700   12.1620   28.5470 N   0  0  0  0  0  0  0  0  0  0  0  0
  -21.7190   12.0890   29.3440 C   0  0  0  0  0  0  0  0  0  0  0  0
  -21.5990   11.6880   30.3190 H   0  0  0  0  0  0  0  0  0  0  0  0
  1  2  1  0
  2  3  2  0
  2 22  1  0
  3  4  1  0
  3  9  1  0
  4  5  2  0
  4  6  1  0
  6  7  1  0
  6  8  1  0
  9 10  2  0
 10 11  1  0
 10 21  1  0
 11 12  1  0
 11 13  1  0
 11 17  1  0
 13 14  1  0
 13 15  1  0
 13 16  1  0
 17 18  1  0
 17 19  1  0
 17 20  1  0
 21 22  2  0
 22 23  1  0
M  END
>  <EnInt_ele>  (1) 
0.3617462

>  <EnInt_vdw>  (1) 
-0.3667276

>  <EnInt_tot>  (1) 
-0.004981361

>  <Charges>  (1) 
-0.18 0.18 0.40 0.54 -0.57 -0.80 0.37 0.37 -0.62 0.48 0.14 0.00 0.00 0.00 0.00 0.00 0.00 0.00 0.00 0.00 -0.62 0.16 0.15

$$$$
