
     RDKit          3D

 16 16  0  0  0  0  0  0  0  0999 V2000
  -18.8730   10.8360   24.7400 Br  0  0  0  0  0  0  0  0  0  0  0  0
  -18.6420   12.3650   25.7860 C   0  0  0  0  0  0  0  0  0  0  0  0
  -18.6320   13.6530   25.3840 C   0  0  0  0  0  0  0  0  0  0  0  0
  -18.7520   14.0960   24.4300 H   0  0  0  0  0  0  0  0  0  0  0  0
  -18.4340   14.3850   26.5050 N   0  0  0  0  0  0  0  0  0  0  0  0
  -18.3300   15.8260   26.6260 C   0  0  0  0  0  0  0  0  0  0  0  0
  -18.6060   16.2480   25.6530 H   0  0  0  0  0  0  0  0  0  0  0  0
  -19.0710   16.1440   27.3680 H   0  0  0  0  0  0  0  0  0  0  0  0
  -16.9280   16.2610   27.0200 C   0  0  0  0  0  0  0  0  0  0  0  0
  -16.6370   15.7700   27.9530 H   0  0  0  0  0  0  0  0  0  0  0  0
  -16.8580   17.3460   27.1540 H   0  0  0  0  0  0  0  0  0  0  0  0
  -15.9980   15.8620   26.0180 O   0  0  0  0  0  0  0  0  0  0  0  0
  -16.2490   16.3190   25.1960 H   0  0  0  0  0  0  0  0  0  0  0  0
  -18.3230   13.5990   27.6110 N   0  0  0  0  0  0  0  0  0  0  0  0
  -18.4490   12.3770   27.1630 C   0  0  0  0  0  0  0  0  0  0  0  0
  -18.4070   11.5200   27.7850 H   0  0  0  0  0  0  0  0  0  0  0  0
  1  2  1  0
  2  3  2  0
  2 15  1  0
  3  4  1  0
  3  5  1  0
  5  6  1  0
  5 14  1  0
  6  7  1  0
  6  8  1  0
  6  9  1  0
  9 10  1  0
  9 11  1  0
  9 12  1  0
 12 13  1  0
 14 15  2  0
 15 16  1  0
M  END
>  <EnInt_ele>  (1) 
-0.8476005

>  <EnInt_vdw>  (1) 
2.443536

>  <EnInt_tot>  (1) 
1.595935

>  <Charges>  (1) 
-0.06 0.06 -0.30 0.15 0.31 0.26 0.00 0.00 0.28 0.00 0.00 -0.68 0.40 -0.71 0.14 0.15

$$$$
