
     RDKit          3D

 30 31  0  0  0  0  0  0  0  0999 V2000
  -25.3450   12.5630   29.6200 F   0  0  0  0  0  0  0  0  0  0  0  0
  -24.1590   12.5560   28.9950 C   0  0  0  0  0  0  0  0  0  0  0  0
  -24.1180   12.8050   27.6290 C   0  0  0  0  0  0  0  0  0  0  0  0
  -25.0130   12.9930   27.0950 H   0  0  0  0  0  0  0  0  0  0  0  0
  -22.8870   12.7970   26.9810 C   0  0  0  0  0  0  0  0  0  0  0  0
  -22.8300   12.9640   25.9380 H   0  0  0  0  0  0  0  0  0  0  0  0
  -21.7160   12.5450   27.7080 C   0  0  0  0  0  0  0  0  0  0  0  0
  -20.4860   12.5350   27.0620 N   0  0  0  0  0  0  0  0  0  0  0  0
  -19.9530   11.3270   26.4180 C   0  0  0  0  0  0  0  0  0  0  0  0
  -19.0730   10.9850   26.9760 H   0  0  0  0  0  0  0  0  0  0  0  0
  -20.6760   10.5040   26.4020 H   0  0  0  0  0  0  0  0  0  0  0  0
  -19.5660   11.6440   24.9650 C   0  0  0  0  0  0  0  0  0  0  0  0
  -20.4670   11.8720   24.3820 H   0  0  0  0  0  0  0  0  0  0  0  0
  -19.1000   10.7650   24.5080 H   0  0  0  0  0  0  0  0  0  0  0  0
  -18.6970   12.8240   24.8690 N   0  0  0  0  0  0  0  0  0  0  0  0
  -17.5020   12.7130   24.2130 C   0  0  0  0  0  0  0  0  0  0  0  0
  -17.0200   11.6540   23.8480 O   0  0  0  0  0  0  0  0  0  0  0  0
  -16.8570   13.8550   23.9610 N   0  0  0  0  0  0  0  0  0  0  0  0
  -16.6900   14.4380   24.7880 H   0  0  0  0  0  0  0  0  0  0  0  0
  -16.1390   13.8150   23.2350 H   0  0  0  0  0  0  0  0  0  0  0  0
  -19.2360   14.0220   25.5370 C   0  0  0  0  0  0  0  0  0  0  0  0
  -18.5180   14.8450   25.5360 H   0  0  0  0  0  0  0  0  0  0  0  0
  -20.1170   14.3360   24.9670 H   0  0  0  0  0  0  0  0  0  0  0  0
  -19.6210   13.7200   26.9950 C   0  0  0  0  0  0  0  0  0  0  0  0
  -20.0700   14.6080   27.4510 H   0  0  0  0  0  0  0  0  0  0  0  0
  -18.7110   13.5070   27.5710 H   0  0  0  0  0  0  0  0  0  0  0  0
  -21.7790   12.2910   29.0880 C   0  0  0  0  0  0  0  0  0  0  0  0
  -20.9000   12.1080   29.6440 H   0  0  0  0  0  0  0  0  0  0  0  0
  -23.0110   12.2990   29.7350 C   0  0  0  0  0  0  0  0  0  0  0  0
  -23.0810   12.1150   30.7750 H   0  0  0  0  0  0  0  0  0  0  0  0
  1  2  1  0
  2  3  2  0
  2 29  1  0
  3  4  1  0
  3  5  1  0
  5  6  1  0
  5  7  2  0
  7  8  1  0
  7 27  1  0
  8  9  1  0
  8 24  1  0
  9 10  1  0
  9 11  1  0
  9 12  1  0
 12 13  1  0
 12 14  1  0
 12 15  1  0
 15 16  1  0
 15 21  1  0
 16 17  2  0
 16 18  1  0
 18 19  1  0
 18 20  1  0
 21 22  1  0
 21 23  1  0
 21 24  1  0
 24 25  1  0
 24 26  1  0
 27 28  1  0
 27 29  2  0
 29 30  1  0
M  END
>  <EnInt_ele>  (1) 
-3.722797

>  <EnInt_vdw>  (1) 
-0.5496396

>  <EnInt_tot>  (1) 
-4.272437

>  <Charges>  (1) 
-0.19 0.19 -0.15 0.15 -0.15 0.15 0.10 -0.84 0.37 0.00 0.00 0.30 0.00 0.00 -0.66 0.69 -0.57 -0.80 0.37 0.37 0.30 0.00 0.00 0.37 0.00 0.00 -0.15 0.15 -0.15 0.15

$$$$
