
     RDKit          3D

 29 30  0  0  0  0  0  0  0  0999 V2000
  -20.5160   13.9810   27.2540 O   0  0  0  0  0  0  0  0  0  0  0  0
  -20.6870   12.9180   26.6880 C   0  0  0  0  0  0  0  0  0  0  0  0
  -21.5210   11.9670   27.2110 N   0  0  0  0  0  0  0  0  0  0  0  0
  -21.5900   11.0990   26.6680 H   0  0  0  0  0  0  0  0  0  0  0  0
  -22.2690   12.0390   28.3790 C   0  0  0  0  0  0  0  0  0  0  0  0
  -22.5180   13.1300   29.1320 C   0  0  0  0  0  0  0  0  0  0  0  0
  -22.2260   14.1410   29.0300 H   0  0  0  0  0  0  0  0  0  0  0  0
  -23.2870   12.6800   30.1540 N   0  0  0  0  0  0  0  0  0  0  0  0
  -23.8290   13.4450   31.2560 C   0  0  0  0  0  0  0  0  0  0  0  0
  -23.4610   12.9950   32.1850 H   0  0  0  0  0  0  0  0  0  0  0  0
  -23.4220   14.4590   31.1910 H   0  0  0  0  0  0  0  0  0  0  0  0
  -25.3470   13.4810   31.2370 C   0  0  0  0  0  0  0  0  0  0  0  0
  -25.7230   14.0720   32.0780 H   0  0  0  0  0  0  0  0  0  0  0  0
  -25.7180   13.9280   30.3100 H   0  0  0  0  0  0  0  0  0  0  0  0
  -25.7670   12.4730   31.3140 H   0  0  0  0  0  0  0  0  0  0  0  0
  -23.5320   11.3390   30.0620 N   0  0  0  0  0  0  0  0  0  0  0  0
  -22.9070   10.9580   28.9790 C   0  0  0  0  0  0  0  0  0  0  0  0
  -22.9020    9.9590   28.6280 H   0  0  0  0  0  0  0  0  0  0  0  0
  -20.0060   12.5020   25.3500 C   0  0  0  0  0  0  0  0  0  0  0  0
  -20.7040   12.5300   24.5000 H   0  0  0  0  0  0  0  0  0  0  0  0
  -18.6710   13.2080   24.9860 C   0  0  0  0  0  0  0  0  0  0  0  0
  -18.0890   13.5520   25.8480 H   0  0  0  0  0  0  0  0  0  0  0  0
  -18.7510   14.0270   24.2640 H   0  0  0  0  0  0  0  0  0  0  0  0
  -18.1900   11.8640   24.4090 C   0  0  0  0  0  0  0  0  0  0  0  0
  -17.1380   11.6230   24.5770 H   0  0  0  0  0  0  0  0  0  0  0  0
  -18.4230   11.7330   23.3460 H   0  0  0  0  0  0  0  0  0  0  0  0
  -19.1960   11.1760   25.3510 C   0  0  0  0  0  0  0  0  0  0  0  0
  -18.7720   10.9050   26.3260 H   0  0  0  0  0  0  0  0  0  0  0  0
  -19.7110   10.3070   24.9350 H   0  0  0  0  0  0  0  0  0  0  0  0
  1  2  2  0
  2  3  1  0
  2 19  1  0
  3  4  1  0
  3  5  1  0
  5  6  2  0
  5 17  1  0
  6  7  1  0
  6  8  1  0
  8  9  1  0
  8 16  1  0
  9 10  1  0
  9 11  1  0
  9 12  1  0
 12 13  1  0
 12 14  1  0
 12 15  1  0
 16 17  2  0
 17 18  1  0
 19 20  1  0
 19 21  1  0
 19 27  1  0
 21 22  1  0
 21 23  1  0
 21 24  1  0
 24 25  1  0
 24 26  1  0
 24 27  1  0
 27 28  1  0
 27 29  1  0
M  END
>  <EnInt_ele>  (1) 
-10.08349

>  <EnInt_vdw>  (1) 
3.869549

>  <EnInt_tot>  (1) 
-6.213943

>  <Charges>  (1) 
-0.57 0.58 -0.49 0.37 0.06 -0.30 0.15 0.31 0.26 0.00 0.00 0.00 0.00 0.00 0.00 -0.71 0.14 0.15 0.05 0.00 0.00 0.00 0.00 0.00 0.00 0.00 0.00 0.00 0.00

$$$$
