
     RDKit          3D

 27 27  0  0  0  0  0  0  0  0999 V2000
  -18.1070   12.2870   24.1140 S   0  0  0  0  0  0  0  0  0  0  0  0
  -17.0400   11.3490   24.3830 O   0  0  0  0  0  0  0  0  0  0  0  0
  -18.8680   12.2500   22.8850 O   0  0  0  0  0  0  0  0  0  0  0  0
  -17.4480   13.8340   24.2410 N   0  0  0  0  0  0  0  0  0  0  0  0
  -18.0990   14.5600   23.9330 H   0  0  0  0  0  0  0  0  0  0  0  0
  -16.5240   13.8980   23.8050 H   0  0  0  0  0  0  0  0  0  0  0  0
  -19.2270   12.2700   25.4680 C   0  0  0  0  0  0  0  0  0  0  0  0
  -19.9940   11.1340   25.7430 C   0  0  0  0  0  0  0  0  0  0  0  0
  -19.8750   10.2640   25.1450 H   0  0  0  0  0  0  0  0  0  0  0  0
  -20.9180   11.1370   26.7830 C   0  0  0  0  0  0  0  0  0  0  0  0
  -21.4950   10.2680   26.9740 H   0  0  0  0  0  0  0  0  0  0  0  0
  -21.0930   12.2780   27.5640 C   0  0  0  0  0  0  0  0  0  0  0  0
  -22.1410   12.3040   28.6420 C   0  0  0  0  0  0  0  0  0  0  0  0
  -21.9280   13.0940   29.3740 H   0  0  0  0  0  0  0  0  0  0  0  0
  -22.1610   11.3560   29.1920 H   0  0  0  0  0  0  0  0  0  0  0  0
  -23.4500   12.5360   28.0710 N   0  0  0  0  0  0  0  0  0  0  0  0
  -23.8720   11.7840   27.5530 H   0  0  0  0  0  0  0  0  0  0  0  0
  -24.0920   13.6880   28.2100 C   0  0  0  0  0  0  0  0  0  0  0  0
  -23.6160   14.6260   28.8320 O   0  0  0  0  0  0  0  0  0  0  0  0
  -25.4450   13.7480   27.5610 C   0  0  0  0  0  0  0  0  0  0  0  0
  -25.3720   13.4460   26.5120 H   0  0  0  0  0  0  0  0  0  0  0  0
  -26.1330   13.0770   28.0840 H   0  0  0  0  0  0  0  0  0  0  0  0
  -25.8320   14.7690   27.6080 H   0  0  0  0  0  0  0  0  0  0  0  0
  -20.3390   13.4160   27.2900 C   0  0  0  0  0  0  0  0  0  0  0  0
  -20.4750   14.2940   27.8700 H   0  0  0  0  0  0  0  0  0  0  0  0
  -19.4160   13.4130   26.2490 C   0  0  0  0  0  0  0  0  0  0  0  0
  -18.8550   14.2900   26.0390 H   0  0  0  0  0  0  0  0  0  0  0  0
  1  2  2  0
  1  3  2  0
  1  4  1  0
  1  7  1  0
  4  5  1  0
  4  6  1  0
  7  8  2  0
  7 26  1  0
  8  9  1  0
  8 10  1  0
 10 11  1  0
 10 12  2  0
 12 13  1  0
 12 24  1  0
 13 14  1  0
 13 15  1  0
 13 16  1  0
 16 17  1  0
 16 18  1  0
 18 19  2  0
 18 20  1  0
 20 21  1  0
 20 22  1  0
 20 23  1  0
 24 25  1  0
 24 26  2  0
 26 27  1  0
M  END
>  <EnInt_ele>  (1) 
13.76165

>  <EnInt_vdw>  (1) 
-2.097192

>  <EnInt_tot>  (1) 
11.66446

>  <Charges>  (1) 
1.45 -0.65 -0.65 -0.98 0.42 0.42 -0.01 -0.15 0.15 -0.15 0.15 -0.14 0.44 0.00 0.00 -0.73 0.37 0.57 -0.57 0.06 0.00 0.00 0.00 -0.15 0.15 -0.15 0.15

$$$$
