
     RDKit          3D

 39 40  0  0  0  0  0  0  0  0999 V2000
  -22.0771   10.4585   27.0412 O   0  0  0  0  0  0  0  0  0  0  0  0
  -21.6089   11.4654   27.5631 C   0  0  0  0  0  0  0  0  0  0  0  0
  -22.3866   12.2110   28.6466 C   0  0  0  0  0  0  0  0  0  0  0  0
  -23.2661   11.6030   28.8897 H   0  0  0  0  0  0  0  0  0  0  0  0
  -21.7977   12.2554   29.5710 H   0  0  0  0  0  0  0  0  0  0  0  0
  -22.8487   13.4998   28.2780 O   0  0  0  0  0  0  0  0  0  0  0  0
  -23.9566   14.0102   28.9050 C   0  0  0  0  0  0  0  0  0  0  0  0
  -24.0649   14.2890   30.2668 C   0  0  0  0  0  0  0  0  0  0  0  0
  -23.2599   14.1052   30.9291 H   0  0  0  0  0  0  0  0  0  0  0  0
  -25.2538   14.8145   30.7632 C   0  0  0  0  0  0  0  0  0  0  0  0
  -25.3384   15.0335   31.7974 H   0  0  0  0  0  0  0  0  0  0  0  0
  -26.3328   15.0519   29.9112 C   0  0  0  0  0  0  0  0  0  0  0  0
  -27.6025   15.6499   30.4471 C   0  0  0  0  0  0  0  0  0  0  0  0
  -27.5530   16.7417   30.3890 H   0  0  0  0  0  0  0  0  0  0  0  0
  -28.4697   15.3031   29.8769 H   0  0  0  0  0  0  0  0  0  0  0  0
  -27.7619   15.3582   31.4901 H   0  0  0  0  0  0  0  0  0  0  0  0
  -26.2147   14.7584   28.5518 C   0  0  0  0  0  0  0  0  0  0  0  0
  -27.0310   14.9305   27.8993 H   0  0  0  0  0  0  0  0  0  0  0  0
  -25.0288   14.2338   28.0476 C   0  0  0  0  0  0  0  0  0  0  0  0
  -24.9395   14.0017   27.0178 H   0  0  0  0  0  0  0  0  0  0  0  0
  -20.3984   11.9196   27.1469 N   0  0  0  0  0  0  0  0  0  0  0  0
  -19.5918   11.1206   26.2130 C   0  0  0  0  0  0  0  0  0  0  0  0
  -18.7271   10.7525   26.7800 H   0  0  0  0  0  0  0  0  0  0  0  0
  -20.1368   10.2418   25.8557 H   0  0  0  0  0  0  0  0  0  0  0  0
  -19.1182   11.9440   25.0125 C   0  0  0  0  0  0  0  0  0  0  0  0
  -19.9596   12.2859   24.4007 H   0  0  0  0  0  0  0  0  0  0  0  0
  -18.4176   11.3702   24.3990 H   0  0  0  0  0  0  0  0  0  0  0  0
  -18.3846   13.1831   25.5020 N   0  0  0  0  0  0  0  0  0  0  0  0
  -17.5794   12.8664   26.0608 H   0  0  0  0  0  0  0  0  0  0  0  0
  -17.8291   13.9891   24.3641 C   0  0  0  0  0  0  0  0  0  0  0  0
  -17.2699   14.8288   24.7855 H   0  0  0  0  0  0  0  0  0  0  0  0
  -17.1581   13.3449   23.7890 H   0  0  0  0  0  0  0  0  0  0  0  0
  -18.6588   14.3416   23.7463 H   0  0  0  0  0  0  0  0  0  0  0  0
  -19.2725   14.0187   26.4080 C   0  0  0  0  0  0  0  0  0  0  0  0
  -20.1071   14.3795   25.7973 H   0  0  0  0  0  0  0  0  0  0  0  0
  -18.6778   14.8665   26.7615 H   0  0  0  0  0  0  0  0  0  0  0  0
  -19.7740   13.1741   27.5889 C   0  0  0  0  0  0  0  0  0  0  0  0
  -20.4633   13.7842   28.1745 H   0  0  0  0  0  0  0  0  0  0  0  0
  -18.9349   12.9011   28.2408 H   0  0  0  0  0  0  0  0  0  0  0  0
  1  2  2  0
  2  3  1  0
  2 21  1  0
  3  4  1  0
  3  5  1  0
  3  6  1  0
  6  7  1  0
  7  8  1  0
  7 19  2  0
  8  9  1  0
  8 10  2  0
 10 11  1  0
 10 12  1  0
 12 13  1  0
 12 17  2  0
 13 14  1  0
 13 15  1  0
 13 16  1  0
 17 18  1  0
 17 19  1  0
 19 20  1  0
 21 22  1  0
 21 37  1  0
 22 23  1  0
 22 24  1  0
 22 25  1  0
 25 26  1  0
 25 27  1  0
 25 28  1  0
 28 29  1  0
 28 30  1  0
 28 34  1  0
 30 31  1  0
 30 32  1  0
 30 33  1  0
 34 35  1  0
 34 36  1  0
 34 37  1  0
 37 38  1  0
 37 39  1  0
M  END
$$$$
