
     RDKit          3D

 30 31  0  0  0  0  0  0  0  0999 V2000
  -23.7560   13.1470   28.6140 N   0  0  0  0  0  0  0  0  0  0  0  0
  -25.0240   13.1590   27.8600 C   0  0  0  0  0  0  0  0  0  0  0  0
  -24.8700   12.9120   26.8060 H   0  0  0  0  0  0  0  0  0  0  0  0
  -25.6820   12.3620   28.2280 H   0  0  0  0  0  0  0  0  0  0  0  0
  -25.7460   14.4870   28.0310 C   0  0  0  0  0  0  0  0  0  0  0  0
  -25.1300   15.3350   27.7200 H   0  0  0  0  0  0  0  0  0  0  0  0
  -26.0210   14.6510   29.0790 H   0  0  0  0  0  0  0  0  0  0  0  0
  -26.6660   14.4970   27.4370 H   0  0  0  0  0  0  0  0  0  0  0  0
  -22.6210   12.6150   27.8340 C   0  0  0  0  0  0  0  0  0  0  0  0
  -22.5940   13.0520   26.8290 H   0  0  0  0  0  0  0  0  0  0  0  0
  -21.6700   12.9080   28.2970 H   0  0  0  0  0  0  0  0  0  0  0  0
  -22.6820   11.0960   27.7550 C   0  0  0  0  0  0  0  0  0  0  0  0
  -23.5970   10.7550   27.2620 H   0  0  0  0  0  0  0  0  0  0  0  0
  -22.6560   10.6490   28.7540 H   0  0  0  0  0  0  0  0  0  0  0  0
  -21.8270   10.7130   27.1890 H   0  0  0  0  0  0  0  0  0  0  0  0
  -23.6200   13.6040   29.9740 C   0  0  0  0  0  0  0  0  0  0  0  0
  -23.5500   15.0050   30.3070 N   0  0  0  0  0  0  0  0  0  0  0  0
  -23.5960   16.0920   29.5050 N   0  0  0  0  0  0  0  0  0  0  0  0
  -23.4920   17.0690   30.3530 C   0  0  0  0  0  0  0  0  0  0  0  0
  -23.4930   18.0860   30.0440 H   0  0  0  0  0  0  0  0  0  0  0  0
  -23.3820   16.7200   31.6390 N   0  0  0  0  0  0  0  0  0  0  0  0
  -23.4200   15.4190   31.6100 C   0  0  0  0  0  0  0  0  0  0  0  0
  -23.3450   14.5380   32.6750 N   0  0  0  0  0  0  0  0  0  0  0  0
  -23.4030   13.2710   32.4250 C   0  0  0  0  0  0  0  0  0  0  0  0
  -23.3250   12.2940   33.5660 C   0  0  0  0  0  0  0  0  0  0  0  0
  -23.3780   11.2610   33.2140 H   0  0  0  0  0  0  0  0  0  0  0  0
  -24.1540   12.4760   34.2550 H   0  0  0  0  0  0  0  0  0  0  0  0
  -22.3800   12.4380   34.0990 H   0  0  0  0  0  0  0  0  0  0  0  0
  -23.5470   12.7340   31.0460 C   0  0  0  0  0  0  0  0  0  0  0  0
  -23.5800   11.6920   30.8940 H   0  0  0  0  0  0  0  0  0  0  0  0
  1  2  1  0
  1  9  1  0
  1 16  1  0
  2  3  1  0
  2  4  1  0
  2  5  1  0
  5  6  1  0
  5  7  1  0
  5  8  1  0
  9 10  1  0
  9 11  1  0
  9 12  1  0
 12 13  1  0
 12 14  1  0
 12 15  1  0
 16 17  1  0
 16 29  2  0
 17 18  1  0
 17 22  1  0
 18 19  2  0
 19 20  1  0
 19 21  1  0
 21 22  2  0
 22 23  1  0
 23 24  2  0
 24 25  1  0
 24 29  1  0
 25 26  1  0
 25 27  1  0
 25 28  1  0
 29 30  1  0
M  END
>  <EnInt_ele>  (1) 
-1.095253

>  <EnInt_vdw>  (1) 
0.8221574

>  <EnInt_tot>  (1) 
-0.2730957

>  <Charges>  (1) 
-0.84 0.37 0.00 0.00 0.00 0.00 0.00 0.00 0.37 0.00 0.00 0.00 0.00 0.00 0.00 0.07 0.60 -0.71 0.37 0.15 -0.57 0.31 -0.58 0.38 0.06 0.00 0.00 0.00 -0.14 0.15

$$$$
