
     RDKit          3D

 16 17  0  0  0  0  0  0  0  0999 V2000
  -21.1140   12.7980   26.6310 Br  0  0  0  0  0  0  0  0  0  0  0  0
  -19.6000   13.1750   25.5560 C   0  0  0  0  0  0  0  0  0  0  0  0
  -18.6710   14.2100   25.8550 C   0  0  0  0  0  0  0  0  0  0  0  0
  -17.5810   14.3870   24.9700 C   0  0  0  0  0  0  0  0  0  0  0  0
  -17.4170   13.6000   23.8680 N   0  0  0  0  0  0  0  0  0  0  0  0
  -18.2760   12.6570   23.6080 C   0  0  0  0  0  0  0  0  0  0  0  0
  -18.1230   12.0590   22.7420 H   0  0  0  0  0  0  0  0  0  0  0  0
  -19.3890   12.4120   24.4350 C   0  0  0  0  0  0  0  0  0  0  0  0
  -20.0600   11.6320   24.1800 H   0  0  0  0  0  0  0  0  0  0  0  0
  -16.6420   15.3550   25.1770 N   0  0  0  0  0  0  0  0  0  0  0  0
  -16.7370   16.1420   26.2120 C   0  0  0  0  0  0  0  0  0  0  0  0
  -15.9910   16.8870   26.3480 H   0  0  0  0  0  0  0  0  0  0  0  0
  -17.7910   16.0320   27.1430 C   0  0  0  0  0  0  0  0  0  0  0  0
  -17.8230   16.6960   27.9680 H   0  0  0  0  0  0  0  0  0  0  0  0
  -18.7590   15.0750   26.9760 C   0  0  0  0  0  0  0  0  0  0  0  0
  -19.5520   14.9900   27.6740 H   0  0  0  0  0  0  0  0  0  0  0  0
  1  2  1  0
  2  3  2  0
  2  8  1  0
  3  4  1  0
  3 15  1  0
  4  5  2  0
  4 10  1  0
  5  6  1  0
  6  7  1  0
  6  8  2  0
  8  9  1  0
 10 11  2  0
 11 12  1  0
 11 13  1  0
 13 14  1  0
 13 15  2  0
 15 16  1  0
M  END
>  <EnInt_ele>  (1) 
-0.9265416

>  <EnInt_vdw>  (1) 
3.70945

>  <EnInt_tot>  (1) 
2.782908

>  <Charges>  (1) 
-0.11 0.11 0.00 0.62 -0.62 0.16 0.15 -0.15 0.15 -0.62 0.16 0.15 -0.15 0.15 -0.15 0.15

$$$$
