
     RDKit          3D

 18 18  0  0  0  0  0  0  0  0999 V2000
  -19.7380   13.3580   27.1240 O   0  0  0  0  0  0  0  0  0  0  0  0
  -20.4120   12.3390   27.0870 C   0  0  0  0  0  0  0  0  0  0  0  0
  -20.0520   11.1910   26.4380 O   0  0  0  0  0  0  0  0  0  0  0  0
  -18.8410   11.2480   25.6680 C   0  0  0  0  0  0  0  0  0  0  0  0
  -18.5960   10.2200   25.3800 H   0  0  0  0  0  0  0  0  0  0  0  0
  -18.0050   11.6220   26.2700 H   0  0  0  0  0  0  0  0  0  0  0  0
  -19.0520   12.0910   24.4260 C   0  0  0  0  0  0  0  0  0  0  0  0
  -19.2980   13.1250   24.6890 H   0  0  0  0  0  0  0  0  0  0  0  0
  -19.8910   11.7060   23.8370 H   0  0  0  0  0  0  0  0  0  0  0  0
  -18.1540   12.0930   23.8010 H   0  0  0  0  0  0  0  0  0  0  0  0
  -21.7030   12.2280   27.7420 C   0  0  0  0  0  0  0  0  0  0  0  0
  -22.3510   13.1860   28.4640 C   0  0  0  0  0  0  0  0  0  0  0  0
  -22.0880   14.1830   28.7070 H   0  0  0  0  0  0  0  0  0  0  0  0
  -23.5020   12.6250   28.8690 N   0  0  0  0  0  0  0  0  0  0  0  0
  -24.2280   13.0970   29.4440 H   0  0  0  0  0  0  0  0  0  0  0  0
  -23.6250   11.3400   28.4370 N   0  0  0  0  0  0  0  0  0  0  0  0
  -22.5360   11.1080   27.7600 C   0  0  0  0  0  0  0  0  0  0  0  0
  -22.3270   10.1810   27.2880 H   0  0  0  0  0  0  0  0  0  0  0  0
  1  2  2  0
  2  3  1  0
  2 11  1  0
  3  4  1  0
  4  5  1  0
  4  6  1  0
  4  7  1  0
  7  8  1  0
  7  9  1  0
  7 10  1  0
 11 12  2  0
 11 17  1  0
 12 13  1  0
 12 14  1  0
 14 15  1  0
 14 16  1  0
 16 17  2  0
 17 18  1  0
M  END
>  <EnInt_ele>  (1) 
-6.074994

>  <EnInt_vdw>  (1) 
2.151462

>  <EnInt_tot>  (1) 
-3.923531

>  <Charges>  (1) 
-0.57 0.81 -0.43 0.28 0.00 0.00 0.00 0.00 0.00 0.00 -0.09 -0.30 0.15 0.30 0.27 -0.71 0.14 0.15

$$$$
