
     RDKit          3D

 30 31  0  0  0  0  0  0  0  0999 V2000
  -25.2220   12.6380   29.6950 F   0  0  0  0  0  0  0  0  0  0  0  0
  -24.0400   12.6050   29.0620 C   0  0  0  0  0  0  0  0  0  0  0  0
  -22.8950   12.3110   29.7930 C   0  0  0  0  0  0  0  0  0  0  0  0
  -22.9610   12.1220   30.8320 H   0  0  0  0  0  0  0  0  0  0  0  0
  -21.6690   12.2780   29.1360 C   0  0  0  0  0  0  0  0  0  0  0  0
  -20.7800   12.0770   29.6720 H   0  0  0  0  0  0  0  0  0  0  0  0
  -21.6070   12.5340   27.7590 C   0  0  0  0  0  0  0  0  0  0  0  0
  -20.3830   12.5030   27.1020 N   0  0  0  0  0  0  0  0  0  0  0  0
  -19.9000   11.3020   26.4080 C   0  0  0  0  0  0  0  0  0  0  0  0
  -19.0300   10.9060   26.9460 H   0  0  0  0  0  0  0  0  0  0  0  0
  -20.6540   10.5080   26.3670 H   0  0  0  0  0  0  0  0  0  0  0  0
  -19.5120   11.6600   24.9650 C   0  0  0  0  0  0  0  0  0  0  0  0
  -20.4080   11.9440   24.3990 H   0  0  0  0  0  0  0  0  0  0  0  0
  -19.0830   10.7820   24.4700 H   0  0  0  0  0  0  0  0  0  0  0  0
  -18.6000   12.8090   24.9070 N   0  0  0  0  0  0  0  0  0  0  0  0
  -17.4140   12.6800   24.2370 C   0  0  0  0  0  0  0  0  0  0  0  0
  -16.9760   11.6180   23.8280 O   0  0  0  0  0  0  0  0  0  0  0  0
  -16.7290   13.8060   24.0240 N   0  0  0  0  0  0  0  0  0  0  0  0
  -16.6080   14.3920   24.8560 H   0  0  0  0  0  0  0  0  0  0  0  0
  -15.9620   13.7440   23.3500 H   0  0  0  0  0  0  0  0  0  0  0  0
  -19.0880   14.0000   25.6250 C   0  0  0  0  0  0  0  0  0  0  0  0
  -18.3400   14.7950   25.6490 H   0  0  0  0  0  0  0  0  0  0  0  0
  -19.9610   14.3690   25.0750 H   0  0  0  0  0  0  0  0  0  0  0  0
  -19.4750   13.6560   27.0740 C   0  0  0  0  0  0  0  0  0  0  0  0
  -19.8870   14.5430   27.5670 H   0  0  0  0  0  0  0  0  0  0  0  0
  -18.5700   13.3880   27.6330 H   0  0  0  0  0  0  0  0  0  0  0  0
  -22.7760   12.8330   27.0400 C   0  0  0  0  0  0  0  0  0  0  0  0
  -22.7380   13.0200   26.0000 H   0  0  0  0  0  0  0  0  0  0  0  0
  -24.0010   12.8660   27.6980 C   0  0  0  0  0  0  0  0  0  0  0  0
  -24.8950   13.0850   27.1750 H   0  0  0  0  0  0  0  0  0  0  0  0
  1  2  1  0
  2  3  2  0
  2 29  1  0
  3  4  1  0
  3  5  1  0
  5  6  1  0
  5  7  2  0
  7  8  1  0
  7 27  1  0
  8  9  1  0
  8 24  1  0
  9 10  1  0
  9 11  1  0
  9 12  1  0
 12 13  1  0
 12 14  1  0
 12 15  1  0
 15 16  1  0
 15 21  1  0
 16 17  2  0
 16 18  1  0
 18 19  1  0
 18 20  1  0
 21 22  1  0
 21 23  1  0
 21 24  1  0
 24 25  1  0
 24 26  1  0
 27 28  1  0
 27 29  2  0
 29 30  1  0
M  END
>  <EnInt_ele>  (1) 
-3.604642

>  <EnInt_vdw>  (1) 
-0.5538287

>  <EnInt_tot>  (1) 
-4.158471

>  <Charges>  (1) 
-0.19 0.19 -0.15 0.15 -0.15 0.15 0.10 -0.84 0.37 0.00 0.00 0.30 0.00 0.00 -0.66 0.69 -0.57 -0.80 0.37 0.37 0.30 0.00 0.00 0.37 0.00 0.00 -0.15 0.15 -0.15 0.15

$$$$
