
     RDKit          3D

 29 31  0  0  0  0  0  0  0  0999 V2000
  -17.1020   18.1770   27.0670 O   0  0  0  0  0  0  0  0  0  0  0  0
  -16.1900   17.5380   26.5920 C   0  0  0  0  0  0  0  0  0  0  0  0
  -16.3190   16.2160   26.2940 N   0  0  0  0  0  0  0  0  0  0  0  0
  -15.4900   15.7500   25.9160 H   0  0  0  0  0  0  0  0  0  0  0  0
  -17.4060   15.3850   26.4270 C   0  0  0  0  0  0  0  0  0  0  0  0
  -18.9310   15.9540   27.0360 S   0  0  0  0  0  0  0  0  0  0  0  0
  -19.5510   14.3530   26.8260 C   0  0  0  0  0  0  0  0  0  0  0  0
  -18.5510   13.5280   26.3140 C   0  0  0  0  0  0  0  0  0  0  0  0
  -17.3220   14.1370   26.0880 N   0  0  0  0  0  0  0  0  0  0  0  0
  -18.8460   12.1770   26.0660 C   0  0  0  0  0  0  0  0  0  0  0  0
  -18.0900   11.5460   25.6780 H   0  0  0  0  0  0  0  0  0  0  0  0
  -20.1150   11.6840   26.3310 C   0  0  0  0  0  0  0  0  0  0  0  0
  -20.3330   10.6650   26.1430 H   0  0  0  0  0  0  0  0  0  0  0  0
  -21.1090   12.5430   26.8500 C   0  0  0  0  0  0  0  0  0  0  0  0
  -22.3960   12.1700   27.1480 O   0  0  0  0  0  0  0  0  0  0  0  0
  -22.5700   10.9850   27.9160 C   0  0  0  0  0  0  0  0  0  0  0  0
  -22.1140   11.0860   28.9060 H   0  0  0  0  0  0  0  0  0  0  0  0
  -23.6450   10.8340   28.0590 H   0  0  0  0  0  0  0  0  0  0  0  0
  -22.1800   10.1100   27.3860 H   0  0  0  0  0  0  0  0  0  0  0  0
  -20.8400   13.8760   27.1000 C   0  0  0  0  0  0  0  0  0  0  0  0
  -21.5870   14.5180   27.4900 H   0  0  0  0  0  0  0  0  0  0  0  0
  -14.8770   18.1450   26.2830 C   0  0  0  0  0  0  0  0  0  0  0  0
  -14.0350   17.5780   26.6720 H   0  0  0  0  0  0  0  0  0  0  0  0
  -14.7150   19.6430   26.1830 C   0  0  0  0  0  0  0  0  0  0  0  0
  -15.5820   20.2820   26.3080 H   0  0  0  0  0  0  0  0  0  0  0  0
  -13.7900   20.0770   26.5430 H   0  0  0  0  0  0  0  0  0  0  0  0
  -14.6550   18.8020   24.9420 C   0  0  0  0  0  0  0  0  0  0  0  0
  -13.6930   18.6640   24.4650 H   0  0  0  0  0  0  0  0  0  0  0  0
  -15.4890   18.8550   24.2500 H   0  0  0  0  0  0  0  0  0  0  0  0
  1  2  2  0
  2  3  1  0
  2 22  1  0
  3  4  1  0
  3  5  1  0
  5  6  1  0
  5  9  2  0
  6  7  1  0
  7  8  2  0
  7 20  1  0
  8  9  1  0
  8 10  1  0
 10 11  1  0
 10 12  2  0
 12 13  1  0
 12 14  1  0
 14 15  1  0
 14 20  2  0
 15 16  1  0
 16 17  1  0
 16 18  1  0
 16 19  1  0
 20 21  1  0
 22 23  1  0
 22 24  1  0
 22 27  1  0
 24 25  1  0
 24 26  1  0
 24 27  1  0
 27 28  1  0
 27 29  1  0
M  END
>  <EnInt_ele>  (1) 
13.68523

>  <EnInt_vdw>  (1) 
4.297658

>  <EnInt_tot>  (1) 
17.98289

>  <Charges>  (1) 
-0.57 0.63 -0.49 0.37 0.44 -0.08 0.04 0.23 -0.57 -0.15 0.15 -0.15 0.15 0.08 -0.36 0.28 0.00 0.00 0.00 -0.15 0.15 -0.10 0.10 -0.20 0.10 0.10 -0.20 0.10 0.10

$$$$
