
     RDKit          3D

 23 24  0  0  1  0  0  0  0  0999 V2000
  -16.7830   15.7820   25.9620 C   0  0  0  0  0  0  0  0  0  0  0  0
  -16.7340   15.5610   27.0310 H   0  0  0  0  0  0  0  0  0  0  0  0
  -17.3470   16.7020   25.7950 H   0  0  0  0  0  0  0  0  0  0  0  0
  -15.7700   15.8780   25.5640 H   0  0  0  0  0  0  0  0  0  0  0  0
  -17.4520   14.7120   25.2730 N   0  0  0  0  0  0  0  0  0  0  0  0
  -17.3490   14.6090   23.9400 N   0  0  0  0  0  0  0  0  0  0  0  0
  -18.0550   13.5710   23.5610 N   0  0  0  0  0  0  0  0  0  0  0  0
  -18.5920   13.0290   24.6740 C   0  0  0  0  0  0  0  0  0  0  0  0
  -18.2140   13.7290   25.7560 C   0  0  0  0  0  0  0  0  0  0  0  0
  -18.5730   13.4400   27.1700 C   0  0  0  0  0  0  0  0  0  0  0  0
  -17.6930   13.0090   27.6620 H   0  0  0  0  0  0  0  0  0  0  0  0
  -18.8130   14.3660   27.7020 H   0  0  0  0  0  0  0  0  0  0  0  0
  -19.7270   12.4090   27.2280 C   0  0  0  0  0  0  0  0  0  0  0  0
  -21.0880   13.1130   27.2110 C   0  0  0  0  0  0  0  0  0  0  0  0
  -21.9140   12.7340   26.3510 O   0  0  0  0  0  0  0  0  0  0  0  0
  -21.2740   14.0450   28.0220 O   0  0  0  0  0  0  0  0  0  0  0  0
  -19.5780   11.3010   26.1530 C   0  0  0  0  0  0  0  0  0  0  0  0
  -18.6620   10.7360   26.3740 H   0  0  0  0  0  0  0  0  0  0  0  0
  -20.4040   10.5830   26.2130 H   0  0  0  0  0  0  0  0  0  0  0  0
  -19.4820   11.8490   24.7120 C   0  0  0  0  0  0  0  0  0  0  0  0
  -20.4760   12.1370   24.3500 H   0  0  0  0  0  0  0  0  0  0  0  0
  -19.1070   11.0640   24.0450 H   0  0  0  0  0  0  0  0  0  0  0  0
  -19.6850   11.9230   28.2120 H   0  0  0  0  0  0  0  0  0  0  0  0
  1  2  1  0
  1  3  1  0
  1  4  1  0
  1  5  1  0
  5  6  1  0
  5  9  1  0
  6  7  2  0
  7  8  1  0
  8  9  2  0
  8 20  1  0
  9 10  1  0
 10 11  1  0
 10 12  1  0
 10 13  1  0
 13 14  1  0
 13 17  1  0
 13 23  1  0
 14 15  1  0
 14 16  2  0
 17 18  1  0
 17 19  1  0
 17 20  1  0
 20 21  1  0
 20 22  1  0
M  END
>  <EnInt_ele>  (1) 
-6.066082

>  <EnInt_vdw>  (1) 
0.1809136

>  <EnInt_tot>  (1) 
-5.885168

>  <Charges>  (1) 
0.26 0.00 0.00 0.00 0.31 -0.42 -0.23 0.05 -0.33 0.18 0.00 0.00 0.06 0.66 -0.15 -0.57 0.00 0.00 0.00 0.18 0.00 0.00 0.00

$$$$
