
     RDKit          3D

 32 33  0  0  0  0  0  0  0  0999 V2000
  -16.1930   15.4010   27.9280 O   0  0  0  0  0  0  0  0  0  0  0  0
  -16.4280   15.3380   26.7300 C   0  0  0  0  0  0  0  0  0  0  0  0
  -15.6440   15.8550   25.7470 O   0  0  0  0  0  0  0  0  0  0  0  0
  -14.9930   17.0790   26.0930 C   0  0  0  0  0  0  0  0  0  0  0  0
  -14.3410   16.9350   26.9600 H   0  0  0  0  0  0  0  0  0  0  0  0
  -15.7330   17.8620   26.2900 H   0  0  0  0  0  0  0  0  0  0  0  0
  -14.3790   17.3880   25.2420 H   0  0  0  0  0  0  0  0  0  0  0  0
  -17.5290   14.7670   26.1710 N   0  0  0  0  0  0  0  0  0  0  0  0
  -17.5780   14.8810   25.1550 H   0  0  0  0  0  0  0  0  0  0  0  0
  -18.5880   14.0690   26.7920 C   0  0  0  0  0  0  0  0  0  0  0  0
  -18.4080   13.2270   27.8920 C   0  0  0  0  0  0  0  0  0  0  0  0
  -17.4460   13.0740   28.3040 H   0  0  0  0  0  0  0  0  0  0  0  0
  -19.5080   12.5780   28.4430 C   0  0  0  0  0  0  0  0  0  0  0  0
  -19.3700   11.9380   29.2770 H   0  0  0  0  0  0  0  0  0  0  0  0
  -20.7840   12.7580   27.9040 C   0  0  0  0  0  0  0  0  0  0  0  0
  -21.9720   12.0320   28.4950 C   0  0  0  0  0  0  0  0  0  0  0  0
  -21.7170   11.6810   29.5040 H   0  0  0  0  0  0  0  0  0  0  0  0
  -22.1690   11.1140   27.9260 H   0  0  0  0  0  0  0  0  0  0  0  0
  -23.2230   12.8720   28.5450 C   0  0  0  0  0  0  0  0  0  0  0  0
  -24.1190   12.8970   27.4830 C   0  0  0  0  0  0  0  0  0  0  0  0
  -23.9480   12.3100   26.6190 H   0  0  0  0  0  0  0  0  0  0  0  0
  -25.2520   13.7020   27.5520 C   0  0  0  0  0  0  0  0  0  0  0  0
  -25.9400   13.7270   26.7450 H   0  0  0  0  0  0  0  0  0  0  0  0
  -25.5120   14.4590   28.6160 N   0  0  0  0  0  0  0  0  0  0  0  0
  -24.6660   14.4530   29.6440 C   0  0  0  0  0  0  0  0  0  0  0  0
  -24.8940   15.0680   30.4790 H   0  0  0  0  0  0  0  0  0  0  0  0
  -23.5140   13.6730   29.6420 C   0  0  0  0  0  0  0  0  0  0  0  0
  -22.8610   13.6980   30.4760 H   0  0  0  0  0  0  0  0  0  0  0  0
  -20.9480   13.5920   26.7960 C   0  0  0  0  0  0  0  0  0  0  0  0
  -21.9100   13.7340   26.3750 H   0  0  0  0  0  0  0  0  0  0  0  0
  -19.8550   14.2460   26.2380 C   0  0  0  0  0  0  0  0  0  0  0  0
  -19.9870   14.8810   25.4000 H   0  0  0  0  0  0  0  0  0  0  0  0
  1  2  2  0
  2  3  1  0
  2  8  1  0
  3  4  1  0
  4  5  1  0
  4  6  1  0
  4  7  1  0
  8  9  1  0
  8 10  1  0
 10 11  2  0
 10 31  1  0
 11 12  1  0
 11 13  1  0
 13 14  1  0
 13 15  2  0
 15 16  1  0
 15 29  1  0
 16 17  1  0
 16 18  1  0
 16 19  1  0
 19 20  2  0
 19 27  1  0
 20 21  1  0
 20 22  1  0
 22 23  1  0
 22 24  2  0
 24 25  1  0
 25 26  1  0
 25 27  2  0
 27 28  1  0
 29 30  1  0
 29 31  2  0
 31 32  1  0
M  END
>  <EnInt_ele>  (1) 
-2.989805

>  <EnInt_vdw>  (1) 
4.986332

>  <EnInt_tot>  (1) 
1.996527

>  <Charges>  (1) 
-0.57 0.78 -0.43 0.28 0.00 0.00 0.00 -0.55 0.37 0.12 -0.15 0.15 -0.15 0.15 -0.14 0.29 0.00 0.00 -0.14 -0.15 0.15 0.16 0.15 -0.62 0.16 0.15 -0.15 0.15 -0.15 0.15 -0.15 0.15

$$$$
