
     RDKit          3D

 29 30  0  0  0  0  0  0  0  0999 V2000
  -22.6880   13.6360   27.4970 O   0  0  0  0  0  0  0  0  0  0  0  0
  -22.4250   12.8760   28.4100 C   0  0  0  0  0  0  0  0  0  0  0  0
  -21.1330   12.5110   28.6730 N   0  0  0  0  0  0  0  0  0  0  0  0
  -21.0130   11.8570   29.4550 H   0  0  0  0  0  0  0  0  0  0  0  0
  -19.9810   12.9140   28.0090 C   0  0  0  0  0  0  0  0  0  0  0  0
  -19.8750   13.8350   27.0290 C   0  0  0  0  0  0  0  0  0  0  0  0
  -20.5950   14.4440   26.5500 H   0  0  0  0  0  0  0  0  0  0  0  0
  -18.5550   13.8630   26.7190 N   0  0  0  0  0  0  0  0  0  0  0  0
  -17.8990   14.6800   25.7220 C   0  0  0  0  0  0  0  0  0  0  0  0
  -17.3390   14.0090   25.0590 H   0  0  0  0  0  0  0  0  0  0  0  0
  -18.6760   15.1680   25.1240 H   0  0  0  0  0  0  0  0  0  0  0  0
  -16.9790   15.7160   26.3420 C   0  0  0  0  0  0  0  0  0  0  0  0
  -16.5060   16.3200   25.5630 H   0  0  0  0  0  0  0  0  0  0  0  0
  -17.5340   16.3870   27.0060 H   0  0  0  0  0  0  0  0  0  0  0  0
  -16.1900   15.2400   26.9330 H   0  0  0  0  0  0  0  0  0  0  0  0
  -17.8290   12.9900   27.4780 N   0  0  0  0  0  0  0  0  0  0  0  0
  -18.7070   12.4170   28.2600 C   0  0  0  0  0  0  0  0  0  0  0  0
  -18.4570   11.6780   28.9760 H   0  0  0  0  0  0  0  0  0  0  0  0
  -23.4760   12.2330   29.3640 C   0  0  0  0  0  0  0  0  0  0  0  0
  -23.4770   11.1340   29.3030 H   0  0  0  0  0  0  0  0  0  0  0  0
  -23.4670   12.7000   30.8450 C   0  0  0  0  0  0  0  0  0  0  0  0
  -23.0960   13.7200   30.9980 H   0  0  0  0  0  0  0  0  0  0  0  0
  -22.9620   12.0310   31.5480 H   0  0  0  0  0  0  0  0  0  0  0  0
  -25.0030   12.5970   30.8220 C   0  0  0  0  0  0  0  0  0  0  0  0
  -25.5410   13.3720   31.3720 H   0  0  0  0  0  0  0  0  0  0  0  0
  -25.3820   11.6140   31.1230 H   0  0  0  0  0  0  0  0  0  0  0  0
  -24.9250   12.7880   29.2950 C   0  0  0  0  0  0  0  0  0  0  0  0
  -24.9960   13.8360   28.9780 H   0  0  0  0  0  0  0  0  0  0  0  0
  -25.6320   12.1930   28.7110 H   0  0  0  0  0  0  0  0  0  0  0  0
  1  2  2  0
  2  3  1  0
  2 19  1  0
  3  4  1  0
  3  5  1  0
  5  6  2  0
  5 17  1  0
  6  7  1  0
  6  8  1  0
  8  9  1  0
  8 16  1  0
  9 10  1  0
  9 11  1  0
  9 12  1  0
 12 13  1  0
 12 14  1  0
 12 15  1  0
 16 17  2  0
 17 18  1  0
 19 20  1  0
 19 21  1  0
 19 27  1  0
 21 22  1  0
 21 23  1  0
 21 24  1  0
 24 25  1  0
 24 26  1  0
 24 27  1  0
 27 28  1  0
 27 29  1  0
M  END
>  <EnInt_ele>  (1) 
-11.91421

>  <EnInt_vdw>  (1) 
6.907165

>  <EnInt_tot>  (1) 
-5.007042

>  <Charges>  (1) 
-0.57 0.58 -0.49 0.37 0.06 -0.30 0.15 0.31 0.26 0.00 0.00 0.00 0.00 0.00 0.00 -0.71 0.14 0.15 0.05 0.00 0.00 0.00 0.00 0.00 0.00 0.00 0.00 0.00 0.00

$$$$
