
     RDKit          3D

 23 24  0  0  0  0  0  0  0  0999 V2000
  -20.3610   14.4380   27.8080 O   0  0  0  0  0  0  0  0  0  0  0  0
  -20.5720   13.4820   27.0690 C   0  0  0  0  0  0  0  0  0  0  0  0
  -19.7010   13.3060   26.0060 N   0  0  0  0  0  0  0  0  0  0  0  0
  -19.7850   12.3240   24.9300 C   0  0  0  0  0  0  0  0  0  0  0  0
  -19.8550   11.3070   25.3170 H   0  0  0  0  0  0  0  0  0  0  0  0
  -20.6770   12.5490   24.3360 H   0  0  0  0  0  0  0  0  0  0  0  0
  -18.5050   12.5140   24.1240 C   0  0  0  0  0  0  0  0  0  0  0  0
  -17.7110   11.8740   24.5290 H   0  0  0  0  0  0  0  0  0  0  0  0
  -18.6330   12.2700   23.0670 H   0  0  0  0  0  0  0  0  0  0  0  0
  -18.1550   13.9740   24.3630 C   0  0  0  0  0  0  0  0  0  0  0  0
  -18.7650   14.6120   23.7120 H   0  0  0  0  0  0  0  0  0  0  0  0
  -17.1010   14.1990   24.1770 H   0  0  0  0  0  0  0  0  0  0  0  0
  -18.5520   14.1800   25.8160 C   0  0  0  0  0  0  0  0  0  0  0  0
  -18.7970   15.2220   26.0400 H   0  0  0  0  0  0  0  0  0  0  0  0
  -17.7620   13.8460   26.4990 H   0  0  0  0  0  0  0  0  0  0  0  0
  -21.7130   12.6040   27.2440 C   0  0  0  0  0  0  0  0  0  0  0  0
  -22.9540   13.0360   27.6080 C   0  0  0  0  0  0  0  0  0  0  0  0
  -23.3260   14.0080   27.8030 H   0  0  0  0  0  0  0  0  0  0  0  0
  -23.7170   11.9350   27.6980 N   0  0  0  0  0  0  0  0  0  0  0  0
  -24.7220   11.9280   27.9590 H   0  0  0  0  0  0  0  0  0  0  0  0
  -23.0190   10.8010   27.4140 N   0  0  0  0  0  0  0  0  0  0  0  0
  -21.8120   11.2130   27.1510 C   0  0  0  0  0  0  0  0  0  0  0  0
  -21.0160   10.5550   26.9120 H   0  0  0  0  0  0  0  0  0  0  0  0
  1  2  2  0
  2  3  1  0
  2 16  1  0
  3  4  1  0
  3 13  1  0
  4  5  1  0
  4  6  1  0
  4  7  1  0
  7  8  1  0
  7  9  1  0
  7 10  1  0
 10 11  1  0
 10 12  1  0
 10 13  1  0
 13 14  1  0
 13 15  1  0
 16 17  2  0
 16 22  1  0
 17 18  1  0
 17 19  1  0
 19 20  1  0
 19 21  1  0
 21 22  2  0
 22 23  1  0
M  END
>  <EnInt_ele>  (1) 
-11.69014

>  <EnInt_vdw>  (1) 
8.279388

>  <EnInt_tot>  (1) 
-3.410747

>  <Charges>  (1) 
-0.57 0.72 -0.66 0.30 0.00 0.00 0.00 0.00 0.00 0.00 0.00 0.00 0.30 0.00 0.00 -0.09 -0.30 0.15 0.30 0.27 -0.71 0.14 0.15

$$$$
