
     RDKit          3D

 18 18  0  0  0  0  0  0  0  0999 V2000
  -22.0380   13.7640   28.9970 O   0  0  0  0  0  0  0  0  0  0  0  0
  -22.4880   13.4430   27.9070 C   0  0  0  0  0  0  0  0  0  0  0  0
  -21.6960   12.7450   27.0510 N   0  0  0  0  0  0  0  0  0  0  0  0
  -22.1080   12.4130   26.1720 H   0  0  0  0  0  0  0  0  0  0  0  0
  -20.3120   12.4270   27.3420 C   0  0  0  0  0  0  0  0  0  0  0  0
  -19.7450   13.3630   27.3970 H   0  0  0  0  0  0  0  0  0  0  0  0
  -20.2780   11.9530   28.3290 H   0  0  0  0  0  0  0  0  0  0  0  0
  -19.7150   11.5090   26.2940 C   0  0  0  0  0  0  0  0  0  0  0  0
  -19.7460   11.9740   25.3040 H   0  0  0  0  0  0  0  0  0  0  0  0
  -20.2690   10.5660   26.2380 H   0  0  0  0  0  0  0  0  0  0  0  0
  -18.6730   11.2800   26.5350 H   0  0  0  0  0  0  0  0  0  0  0  0
  -23.8270   13.7430   27.4910 C   0  0  0  0  0  0  0  0  0  0  0  0
  -24.5190   14.7540   28.0150 N   0  0  0  0  0  0  0  0  0  0  0  0
  -24.1730   15.4010   28.7500 H   0  0  0  0  0  0  0  0  0  0  0  0
  -25.7360   14.8300   27.4660 N   0  0  0  0  0  0  0  0  0  0  0  0
  -25.8330   13.8620   26.5770 N   0  0  0  0  0  0  0  0  0  0  0  0
  -24.6690   13.1950   26.5860 C   0  0  0  0  0  0  0  0  0  0  0  0
  -24.4700   12.3620   25.9610 H   0  0  0  0  0  0  0  0  0  0  0  0
  1  2  2  0
  2  3  1  0
  2 12  1  0
  3  4  1  0
  3  5  1  0
  5  6  1  0
  5  7  1  0
  5  8  1  0
  8  9  1  0
  8 10  1  0
  8 11  1  0
 12 13  1  0
 12 17  2  0
 13 14  1  0
 13 15  1  0
 15 16  2  0
 16 17  1  0
 17 18  1  0
M  END
>  <EnInt_ele>  (1) 
-20.25912

>  <EnInt_vdw>  (1) 
7.157377

>  <EnInt_tot>  (1) 
-13.10175

>  <Charges>  (1) 
-0.57 0.71 -0.73 0.37 0.30 0.00 0.00 0.00 0.00 0.00 0.00 -0.24 0.30 0.27 -0.42 -0.23 0.08 0.15

$$$$
