
     RDKit          3D

 29 31  0  0  0  0  0  0  0  0999 V2000
  -20.1390   14.0480   26.2330 O   0  0  0  0  0  0  0  0  0  0  0  0
  -20.1970   12.8980   25.8580 C   0  0  0  0  0  0  0  0  0  0  0  0
  -20.8860   11.9510   26.5520 N   0  0  0  0  0  0  0  0  0  0  0  0
  -20.8640   11.0010   26.1740 H   0  0  0  0  0  0  0  0  0  0  0  0
  -21.6190   12.0660   27.7100 C   0  0  0  0  0  0  0  0  0  0  0  0
  -22.0120   13.6110   28.4000 S   0  0  0  0  0  0  0  0  0  0  0  0
  -22.8500   12.7760   29.6610 C   0  0  0  0  0  0  0  0  0  0  0  0
  -22.7600   11.4010   29.4500 C   0  0  0  0  0  0  0  0  0  0  0  0
  -22.0490   11.0080   28.3220 N   0  0  0  0  0  0  0  0  0  0  0  0
  -23.3770   10.5310   30.3640 C   0  0  0  0  0  0  0  0  0  0  0  0
  -23.3110    9.4860   30.2080 H   0  0  0  0  0  0  0  0  0  0  0  0
  -24.0630   11.0440   31.4550 C   0  0  0  0  0  0  0  0  0  0  0  0
  -24.5270   10.3850   32.1420 H   0  0  0  0  0  0  0  0  0  0  0  0
  -24.1390   12.4420   31.6440 C   0  0  0  0  0  0  0  0  0  0  0  0
  -24.7880   13.0630   32.6820 O   0  0  0  0  0  0  0  0  0  0  0  0
  -25.4810   12.2340   33.6080 C   0  0  0  0  0  0  0  0  0  0  0  0
  -24.7910   11.5600   34.1260 H   0  0  0  0  0  0  0  0  0  0  0  0
  -25.9380   12.8840   34.3600 H   0  0  0  0  0  0  0  0  0  0  0  0
  -26.2850   11.6780   33.1150 H   0  0  0  0  0  0  0  0  0  0  0  0
  -23.5380   13.3160   30.7560 C   0  0  0  0  0  0  0  0  0  0  0  0
  -23.5950   14.3630   30.9010 H   0  0  0  0  0  0  0  0  0  0  0  0
  -19.5450   12.4380   24.6120 C   0  0  0  0  0  0  0  0  0  0  0  0
  -20.2300   12.3360   23.7760 H   0  0  0  0  0  0  0  0  0  0  0  0
  -18.3600   11.5010   24.6540 C   0  0  0  0  0  0  0  0  0  0  0  0
  -17.9630   11.1880   25.6130 H   0  0  0  0  0  0  0  0  0  0  0  0
  -18.2800   10.7520   23.8760 H   0  0  0  0  0  0  0  0  0  0  0  0
  -18.1630   12.9360   24.2650 C   0  0  0  0  0  0  0  0  0  0  0  0
  -17.9520   13.1600   23.2260 H   0  0  0  0  0  0  0  0  0  0  0  0
  -17.6590   13.5900   24.9700 H   0  0  0  0  0  0  0  0  0  0  0  0
  1  2  2  0
  2  3  1  0
  2 22  1  0
  3  4  1  0
  3  5  1  0
  5  6  1  0
  5  9  2  0
  6  7  1  0
  7  8  2  0
  7 20  1  0
  8  9  1  0
  8 10  1  0
 10 11  1  0
 10 12  2  0
 12 13  1  0
 12 14  1  0
 14 15  1  0
 14 20  2  0
 15 16  1  0
 16 17  1  0
 16 18  1  0
 16 19  1  0
 20 21  1  0
 22 23  1  0
 22 24  1  0
 22 27  1  0
 24 25  1  0
 24 26  1  0
 24 27  1  0
 27 28  1  0
 27 29  1  0
M  END
>  <EnInt_ele>  (1) 
-9.175936

>  <EnInt_vdw>  (1) 
9.428805

>  <EnInt_tot>  (1) 
0.2528693

>  <Charges>  (1) 
-0.57 0.63 -0.49 0.37 0.44 -0.08 0.04 0.23 -0.57 -0.15 0.15 -0.15 0.15 0.08 -0.36 0.28 0.00 0.00 0.00 -0.15 0.15 -0.10 0.10 -0.20 0.10 0.10 -0.20 0.10 0.10

$$$$
