
     RDKit          3D

 21 21  0  0  0  0  0  0  0  0999 V2000
  -18.9310    9.8610   24.7730 Br  0  0  0  0  0  0  0  0  0  0  0  0
  -18.9300   11.6830   25.2820 C   0  0  0  0  0  0  0  0  0  0  0  0
  -19.5870   12.0840   26.4410 C   0  0  0  0  0  0  0  0  0  0  0  0
  -20.0930   11.3800   27.0450 H   0  0  0  0  0  0  0  0  0  0  0  0
  -19.5820   13.4280   26.8020 C   0  0  0  0  0  0  0  0  0  0  0  0
  -20.2610   13.7730   27.9410 O   0  0  0  0  0  0  0  0  0  0  0  0
  -21.6520   13.3800   28.0210 C   0  0  0  0  0  0  0  0  0  0  0  0
  -22.0970   13.8790   28.8800 H   0  0  0  0  0  0  0  0  0  0  0  0
  -21.6940   12.2970   28.1340 H   0  0  0  0  0  0  0  0  0  0  0  0
  -22.1600   13.6810   27.1050 H   0  0  0  0  0  0  0  0  0  0  0  0
  -18.9130   14.3890   26.0320 C   0  0  0  0  0  0  0  0  0  0  0  0
  -18.8520   15.8670   26.4200 C   0  0  0  0  0  0  0  0  0  0  0  0
  -19.3240   15.9960   27.3810 H   0  0  0  0  0  0  0  0  0  0  0  0
  -19.2950   16.4900   25.6610 H   0  0  0  0  0  0  0  0  0  0  0  0
  -17.4040   16.2760   26.5690 C   0  0  0  0  0  0  0  0  0  0  0  0
  -17.0570   17.3640   26.0560 O   0  0  0  0  0  0  0  0  0  0  0  0
  -16.6290   15.4830   27.1490 O   0  0  0  0  0  0  0  0  0  0  0  0
  -18.2660   13.9700   24.8700 C   0  0  0  0  0  0  0  0  0  0  0  0
  -17.7720   14.6870   24.2620 H   0  0  0  0  0  0  0  0  0  0  0  0
  -18.2740   12.6280   24.4950 C   0  0  0  0  0  0  0  0  0  0  0  0
  -17.7810   12.3280   23.6080 H   0  0  0  0  0  0  0  0  0  0  0  0
  1  2  1  0
  2  3  2  0
  2 20  1  0
  3  4  1  0
  3  5  1  0
  5  6  1  0
  5 11  2  0
  6  7  1  0
  7  8  1  0
  7  9  1  0
  7 10  1  0
 11 12  1  0
 11 18  1  0
 12 13  1  0
 12 14  1  0
 12 15  1  0
 15 16  1  0
 15 17  2  0
 18 19  1  0
 18 20  2  0
 20 21  1  0
M  END
>  <EnInt_ele>  (1) 
-2.447262

>  <EnInt_vdw>  (1) 
31.66791

>  <EnInt_tot>  (1) 
29.22065

>  <Charges>  (1) 
-0.11 0.11 -0.15 0.15 0.08 -0.36 0.28 0.00 0.00 0.00 -0.14 0.21 0.00 0.00 0.66 -0.15 -0.57 -0.15 0.15 -0.15 0.15

$$$$
