
     RDKit          3D

 29 31  0  0  0  0  0  0  0  0999 V2000
  -18.8600   11.6590   27.5970 O   0  0  0  0  0  0  0  0  0  0  0  0
  -19.4580   11.6790   26.5450 C   0  0  0  0  0  0  0  0  0  0  0  0
  -20.8060   11.8670   26.4900 N   0  0  0  0  0  0  0  0  0  0  0  0
  -21.2320   11.8460   25.5600 H   0  0  0  0  0  0  0  0  0  0  0  0
  -21.7080   12.0780   27.5060 C   0  0  0  0  0  0  0  0  0  0  0  0
  -23.2980   12.7100   27.2060 S   0  0  0  0  0  0  0  0  0  0  0  0
  -23.6040   12.6020   28.9040 C   0  0  0  0  0  0  0  0  0  0  0  0
  -22.4760   12.0960   29.5500 C   0  0  0  0  0  0  0  0  0  0  0  0
  -21.3940   11.7990   28.7310 N   0  0  0  0  0  0  0  0  0  0  0  0
  -22.5110   11.9260   30.9440 C   0  0  0  0  0  0  0  0  0  0  0  0
  -21.6580   11.5430   31.4390 H   0  0  0  0  0  0  0  0  0  0  0  0
  -23.6550   12.2590   31.6560 C   0  0  0  0  0  0  0  0  0  0  0  0
  -23.6770   12.1280   32.7060 H   0  0  0  0  0  0  0  0  0  0  0  0
  -24.7830   12.7680   30.9740 C   0  0  0  0  0  0  0  0  0  0  0  0
  -25.9660   13.1300   31.5700 O   0  0  0  0  0  0  0  0  0  0  0  0
  -26.0900   14.4760   32.0120 C   0  0  0  0  0  0  0  0  0  0  0  0
  -26.0220   15.1750   31.1720 H   0  0  0  0  0  0  0  0  0  0  0  0
  -27.0820   14.5910   32.4600 H   0  0  0  0  0  0  0  0  0  0  0  0
  -25.3480   14.7080   32.7830 H   0  0  0  0  0  0  0  0  0  0  0  0
  -24.7700   12.9440   29.6030 C   0  0  0  0  0  0  0  0  0  0  0  0
  -25.6160   13.3270   29.0950 H   0  0  0  0  0  0  0  0  0  0  0  0
  -18.7750   11.5200   25.2430 C   0  0  0  0  0  0  0  0  0  0  0  0
  -18.4250   10.5080   25.0580 H   0  0  0  0  0  0  0  0  0  0  0  0
  -17.9740   12.6500   24.6400 C   0  0  0  0  0  0  0  0  0  0  0  0
  -17.9270   13.6020   25.1560 H   0  0  0  0  0  0  0  0  0  0  0  0
  -17.0730   12.3960   24.0950 H   0  0  0  0  0  0  0  0  0  0  0  0
  -19.2900   12.2620   24.0340 C   0  0  0  0  0  0  0  0  0  0  0  0
  -19.2810   11.7450   23.0820 H   0  0  0  0  0  0  0  0  0  0  0  0
  -20.1290   12.9380   24.1630 H   0  0  0  0  0  0  0  0  0  0  0  0
  1  2  2  0
  2  3  1  0
  2 22  1  0
  3  4  1  0
  3  5  1  0
  5  6  1  0
  5  9  2  0
  6  7  1  0
  7  8  2  0
  7 20  1  0
  8  9  1  0
  8 10  1  0
 10 11  1  0
 10 12  2  0
 12 13  1  0
 12 14  1  0
 14 15  1  0
 14 20  2  0
 15 16  1  0
 16 17  1  0
 16 18  1  0
 16 19  1  0
 20 21  1  0
 22 23  1  0
 22 24  1  0
 22 27  1  0
 24 25  1  0
 24 26  1  0
 24 27  1  0
 27 28  1  0
 27 29  1  0
M  END
>  <EnInt_ele>  (1) 
-0.4998242

>  <EnInt_vdw>  (1) 
3.145214

>  <EnInt_tot>  (1) 
2.64539

>  <Charges>  (1) 
-0.57 0.63 -0.49 0.37 0.44 -0.08 0.04 0.23 -0.57 -0.15 0.15 -0.15 0.15 0.08 -0.36 0.28 0.00 0.00 0.00 -0.15 0.15 -0.10 0.10 -0.20 0.10 0.10 -0.20 0.10 0.10

$$$$
