
     RDKit          3D

 25 27  0  0  0  0  0  0  0  0999 V2000
  -22.5900   12.9420   26.4510 O   0  0  0  0  0  0  0  0  0  0  0  0
  -22.3410   12.5770   27.5990 C   0  0  0  0  0  0  0  0  0  0  0  0
  -21.0560   12.2500   27.9140 N   0  0  0  0  0  0  0  0  0  0  0  0
  -20.9000   11.9630   28.8950 H   0  0  0  0  0  0  0  0  0  0  0  0
  -19.9610   12.2880   27.0050 C   0  0  0  0  0  0  0  0  0  0  0  0
  -20.1420   11.7140   26.0980 H   0  0  0  0  0  0  0  0  0  0  0  0
  -18.5440   12.3080   27.5100 C   0  0  0  0  0  0  0  0  0  0  0  0
  -18.3710   12.3360   28.5790 H   0  0  0  0  0  0  0  0  0  0  0  0
  -17.8030   11.7460   26.9540 H   0  0  0  0  0  0  0  0  0  0  0  0
  -19.1260   13.5300   26.8640 C   0  0  0  0  0  0  0  0  0  0  0  0
  -18.7850   13.7960   25.8710 H   0  0  0  0  0  0  0  0  0  0  0  0
  -19.3580   14.3780   27.4980 H   0  0  0  0  0  0  0  0  0  0  0  0
  -23.3230   12.4760   28.6530 C   0  0  0  0  0  0  0  0  0  0  0  0
  -24.5320   13.1240   28.6990 C   0  0  0  0  0  0  0  0  0  0  0  0
  -25.0980   12.7100   29.8820 N   0  0  0  0  0  0  0  0  0  0  0  0
  -24.3130   11.8400   30.5700 N   0  0  0  0  0  0  0  0  0  0  0  0
  -23.2480   11.7110   29.8160 C   0  0  0  0  0  0  0  0  0  0  0  0
  -22.4280   11.0880   30.0740 H   0  0  0  0  0  0  0  0  0  0  0  0
  -26.3590   13.1680   30.2860 C   0  0  0  0  0  0  0  0  0  0  0  0
  -26.7120   12.7940   31.2120 H   0  0  0  0  0  0  0  0  0  0  0  0
  -26.9830   14.0430   29.4390 C   0  0  0  0  0  0  0  0  0  0  0  0
  -27.9380   14.4350   29.6750 H   0  0  0  0  0  0  0  0  0  0  0  0
  -26.3600   14.4510   28.2140 C   0  0  0  0  0  0  0  0  0  0  0  0
  -26.8630   15.1300   27.5750 H   0  0  0  0  0  0  0  0  0  0  0  0
  -25.1850   14.0200   27.8430 N   0  0  0  0  0  0  0  0  0  0  0  0
  1  2  2  0
  2  3  1  0
  2 13  1  0
  3  4  1  0
  3  5  1  0
  5  6  1  0
  5  7  1  0
  5 10  1  0
  7  8  1  0
  7  9  1  0
  7 10  1  0
 10 11  1  0
 10 12  1  0
 13 14  2  0
 13 17  1  0
 14 15  1  0
 14 25  1  0
 15 16  1  0
 15 19  1  0
 16 17  2  0
 17 18  1  0
 19 20  1  0
 19 21  2  0
 21 22  1  0
 21 23  1  0
 23 24  1  0
 23 25  2  0
M  END
>  <EnInt_ele>  (1) 
-9.247258

>  <EnInt_vdw>  (1) 
3.857828

>  <EnInt_tot>  (1) 
-5.389431

>  <Charges>  (1) 
-0.57 0.72 -0.58 0.37 0.05 0.10 -0.20 0.10 0.10 -0.20 0.10 0.10 -0.09 -0.03 0.60 -0.71 0.14 0.15 -0.18 0.15 -0.14 0.15 0.38 0.06 -0.58

$$$$
