
     RDKit          3D

 29 30  0  0  1  0  0  0  0  0999 V2000
  -18.5950   11.6880   25.1430 C   0  0  0  0  0  0  0  0  0  0  0  0
  -19.3910   11.0120   24.8120 H   0  0  0  0  0  0  0  0  0  0  0  0
  -17.9880   11.1640   25.8910 H   0  0  0  0  0  0  0  0  0  0  0  0
  -17.9360   11.8920   24.2910 H   0  0  0  0  0  0  0  0  0  0  0  0
  -19.1610   12.9870   25.7060 C   0  0  0  0  0  0  0  0  0  0  0  0
  -18.0760   13.8310   26.0940 O   0  0  0  0  0  0  0  0  0  0  0  0
  -17.5500   14.0100   25.2990 H   0  0  0  0  0  0  0  0  0  0  0  0
  -20.0900   12.7380   26.8520 C   0  0  0  0  0  0  0  0  0  0  0  0
  -19.7250   12.4670   28.1660 C   0  0  0  0  0  0  0  0  0  0  0  0
  -18.7330   12.3940   28.5300 H   0  0  0  0  0  0  0  0  0  0  0  0
  -20.7730   12.3070   28.9260 N   0  0  0  0  0  0  0  0  0  0  0  0
  -21.8420   12.4770   28.0940 N   0  0  0  0  0  0  0  0  0  0  0  0
  -23.1950   12.3690   28.5860 C   0  0  0  0  0  0  0  0  0  0  0  0
  -23.4110   11.3010   28.7170 H   0  0  0  0  0  0  0  0  0  0  0  0
  -23.4470   13.0930   29.9070 C   0  0  0  0  0  0  0  0  0  0  0  0
  -23.0200   12.5600   30.7620 H   0  0  0  0  0  0  0  0  0  0  0  0
  -23.0180   14.1020   29.9010 H   0  0  0  0  0  0  0  0  0  0  0  0
  -24.9680   13.1870   29.9910 C   0  0  0  0  0  0  0  0  0  0  0  0
  -25.3690   12.3460   30.5680 H   0  0  0  0  0  0  0  0  0  0  0  0
  -25.2820   14.1070   30.4930 H   0  0  0  0  0  0  0  0  0  0  0  0
  -25.4810   13.1190   28.5520 C   0  0  0  0  0  0  0  0  0  0  0  0
  -26.0650   14.0060   28.2860 H   0  0  0  0  0  0  0  0  0  0  0  0
  -26.1370   12.2480   28.4340 H   0  0  0  0  0  0  0  0  0  0  0  0
  -24.2490   12.9790   27.6630 C   0  0  0  0  0  0  0  0  0  0  0  0
  -23.9430   13.9680   27.3010 H   0  0  0  0  0  0  0  0  0  0  0  0
  -24.4440   12.3550   26.7850 H   0  0  0  0  0  0  0  0  0  0  0  0
  -21.4440   12.7420   26.8320 C   0  0  0  0  0  0  0  0  0  0  0  0
  -22.1250   12.9040   26.0380 H   0  0  0  0  0  0  0  0  0  0  0  0
  -19.7060   13.5150   24.9130 H   0  0  0  0  0  0  0  0  0  0  0  0
  1  2  1  0
  1  3  1  0
  1  4  1  0
  1  5  1  0
  5  6  1  0
  5  8  1  0
  5 29  1  0
  6  7  1  0
  8  9  1  0
  8 27  2  0
  9 10  1  0
  9 11  2  0
 11 12  1  0
 12 13  1  0
 12 27  1  0
 13 14  1  0
 13 15  1  0
 13 24  1  0
 15 16  1  0
 15 17  1  0
 15 18  1  0
 18 19  1  0
 18 20  1  0
 18 21  1  0
 21 22  1  0
 21 23  1  0
 21 24  1  0
 24 25  1  0
 24 26  1  0
 27 28  1  0
M  END
>  <EnInt_ele>  (1) 
-9.094947e-013

>  <EnInt_vdw>  (1) 
-0.9076316

>  <EnInt_tot>  (1) 
-0.9076316

>  <Charges>  (1) 
0.00 0.00 0.00 0.00 0.46 -0.68 0.40 -0.18 0.14 0.15 -0.71 0.31 0.26 0.00 0.00 0.00 0.00 0.00 0.00 0.00 0.00 0.00 0.00 0.00 0.00 0.00 -0.30 0.15 0.00

$$$$
