
     RDKit          3D

 29 30  0  0  0  0  0  0  0  0999 V2000
  -22.3190   12.9570   25.6580 F   0  0  0  0  0  0  0  0  0  0  0  0
  -21.1780   12.6100   26.2720 C   0  0  0  0  0  0  0  0  0  0  0  0
  -21.1010   12.6680   27.6650 C   0  0  0  0  0  0  0  0  0  0  0  0
  -22.2800   13.1010   28.4990 C   0  0  0  0  0  0  0  0  0  0  0  0
  -22.6140   14.1000   28.1920 H   0  0  0  0  0  0  0  0  0  0  0  0
  -21.9350   13.2240   29.5350 H   0  0  0  0  0  0  0  0  0  0  0  0
  -23.4570   12.1310   28.4520 C   0  0  0  0  0  0  0  0  0  0  0  0
  -23.2040   10.7660   29.0080 C   0  0  0  0  0  0  0  0  0  0  0  0
  -22.8510    9.8210   28.3330 O   0  0  0  0  0  0  0  0  0  0  0  0
  -23.4050   10.6020   30.3390 N   0  0  0  0  0  0  0  0  0  0  0  0
  -23.7470   11.3950   30.8630 H   0  0  0  0  0  0  0  0  0  0  0  0
  -23.1740    9.3550   31.0230 C   0  0  0  0  0  0  0  0  0  0  0  0
  -23.8790    8.6070   30.6510 H   0  0  0  0  0  0  0  0  0  0  0  0
  -22.1520    9.0190   30.8340 H   0  0  0  0  0  0  0  0  0  0  0  0
  -23.3240    9.5100   32.0950 H   0  0  0  0  0  0  0  0  0  0  0  0
  -24.5350   12.2500   27.3710 C   0  0  0  0  0  0  0  0  0  0  0  0
  -25.0310   11.3420   27.0390 H   0  0  0  0  0  0  0  0  0  0  0  0
  -24.4470   12.9950   26.5900 H   0  0  0  0  0  0  0  0  0  0  0  0
  -24.8310   12.7350   28.7500 C   0  0  0  0  0  0  0  0  0  0  0  0
  -25.5260   12.1610   29.3530 H   0  0  0  0  0  0  0  0  0  0  0  0
  -24.9130   13.8060   28.8990 H   0  0  0  0  0  0  0  0  0  0  0  0
  -19.8940   12.3110   28.2680 C   0  0  0  0  0  0  0  0  0  0  0  0
  -19.7950   12.3460   29.3230 H   0  0  0  0  0  0  0  0  0  0  0  0
  -18.8070   11.9100   27.4900 C   0  0  0  0  0  0  0  0  0  0  0  0
  -17.8940   11.6400   27.9600 H   0  0  0  0  0  0  0  0  0  0  0  0
  -18.9100   11.8580   26.1010 C   0  0  0  0  0  0  0  0  0  0  0  0
  -18.0790   11.5510   25.5170 H   0  0  0  0  0  0  0  0  0  0  0  0
  -20.1050   12.2110   25.4830 C   0  0  0  0  0  0  0  0  0  0  0  0
  -20.2030   12.1790   24.4290 H   0  0  0  0  0  0  0  0  0  0  0  0
  1  2  1  0
  2  3  2  0
  2 28  1  0
  3  4  1  0
  3 22  1  0
  4  5  1  0
  4  6  1  0
  4  7  1  0
  7  8  1  0
  7 16  1  0
  7 19  1  0
  8  9  2  0
  8 10  1  0
 10 11  1  0
 10 12  1  0
 12 13  1  0
 12 14  1  0
 12 15  1  0
 16 17  1  0
 16 18  1  0
 16 19  1  0
 19 20  1  0
 19 21  1  0
 22 23  1  0
 22 24  2  0
 24 25  1  0
 24 26  1  0
 26 27  1  0
 26 28  2  0
 28 29  1  0
M  END
>  <EnInt_ele>  (1) 
-3.460851

>  <EnInt_vdw>  (1) 
6.621951

>  <EnInt_tot>  (1) 
3.161099

>  <Charges>  (1) 
-0.19 0.19 -0.14 0.24 0.00 0.00 -0.10 0.63 -0.57 -0.73 0.37 0.30 0.00 0.00 0.00 -0.20 0.10 0.10 -0.20 0.10 0.10 -0.15 0.15 -0.15 0.15 -0.15 0.15 -0.15 0.15

$$$$
