
     RDKit          3D

 31 32  0  0  0  0  0  0  0  0999 V2000
  -23.3590   12.6850   30.2350 O   0  0  0  0  0  0  0  0  0  0  0  0
  -23.4260   13.3510   29.2100 C   0  0  0  0  0  0  0  0  0  0  0  0
  -22.4910   13.0970   28.2510 N   0  0  0  0  0  0  0  0  0  0  0  0
  -22.5520   13.5540   27.3330 H   0  0  0  0  0  0  0  0  0  0  0  0
  -21.4070   12.1590   28.4610 C   0  0  0  0  0  0  0  0  0  0  0  0
  -21.6900   11.1960   28.0190 H   0  0  0  0  0  0  0  0  0  0  0  0
  -21.2750   12.0100   29.5380 H   0  0  0  0  0  0  0  0  0  0  0  0
  -20.1710   12.6920   27.8300 C   0  0  0  0  0  0  0  0  0  0  0  0
  -20.0900   13.5280   26.7680 C   0  0  0  0  0  0  0  0  0  0  0  0
  -20.8360   13.9830   26.1710 H   0  0  0  0  0  0  0  0  0  0  0  0
  -18.7700   13.7260   26.5520 N   0  0  0  0  0  0  0  0  0  0  0  0
  -18.1450   14.5390   25.5310 C   0  0  0  0  0  0  0  0  0  0  0  0
  -18.7010   15.4810   25.4670 H   0  0  0  0  0  0  0  0  0  0  0  0
  -17.1290   14.7720   25.8690 H   0  0  0  0  0  0  0  0  0  0  0  0
  -18.1200   13.8480   24.1800 C   0  0  0  0  0  0  0  0  0  0  0  0
  -19.1340   13.6090   23.8410 H   0  0  0  0  0  0  0  0  0  0  0  0
  -17.5550   12.9100   24.2260 H   0  0  0  0  0  0  0  0  0  0  0  0
  -17.6500   14.4930   23.4310 H   0  0  0  0  0  0  0  0  0  0  0  0
  -18.0090   13.0440   27.4440 N   0  0  0  0  0  0  0  0  0  0  0  0
  -18.8620   12.4210   28.2100 C   0  0  0  0  0  0  0  0  0  0  0  0
  -18.5690   11.7970   29.0160 H   0  0  0  0  0  0  0  0  0  0  0  0
  -24.4810   14.3540   28.9710 C   0  0  0  0  0  0  0  0  0  0  0  0
  -25.0220   14.4480   27.6830 C   0  0  0  0  0  0  0  0  0  0  0  0
  -24.6640   13.8070   26.9150 H   0  0  0  0  0  0  0  0  0  0  0  0
  -25.9790   15.3230   27.3700 N   0  0  0  0  0  0  0  0  0  0  0  0
  -26.4550   16.1420   28.3050 C   0  0  0  0  0  0  0  0  0  0  0  0
  -27.2160   16.8270   28.0260 H   0  0  0  0  0  0  0  0  0  0  0  0
  -25.9810   16.1100   29.6140 C   0  0  0  0  0  0  0  0  0  0  0  0
  -26.3830   16.7700   30.3370 H   0  0  0  0  0  0  0  0  0  0  0  0
  -24.9830   15.2080   29.9610 C   0  0  0  0  0  0  0  0  0  0  0  0
  -24.6240   15.1710   30.9560 H   0  0  0  0  0  0  0  0  0  0  0  0
  1  2  2  0
  2  3  1  0
  2 22  1  0
  3  4  1  0
  3  5  1  0
  5  6  1  0
  5  7  1  0
  5  8  1  0
  8  9  2  0
  8 20  1  0
  9 10  1  0
  9 11  1  0
 11 12  1  0
 11 19  1  0
 12 13  1  0
 12 14  1  0
 12 15  1  0
 15 16  1  0
 15 17  1  0
 15 18  1  0
 19 20  2  0
 20 21  1  0
 22 23  2  0
 22 30  1  0
 23 24  1  0
 23 25  1  0
 25 26  2  0
 26 27  1  0
 26 28  1  0
 28 29  1  0
 28 30  2  0
 30 31  1  0
M  END
>  <EnInt_ele>  (1) 
-14.44967

>  <EnInt_vdw>  (1) 
3.034927

>  <EnInt_tot>  (1) 
-11.41475

>  <Charges>  (1) 
-0.57 0.54 -0.73 0.37 0.48 0.00 0.00 -0.18 -0.30 0.15 0.31 0.26 0.00 0.00 0.00 0.00 0.00 0.00 -0.71 0.14 0.15 0.09 0.16 0.15 -0.62 0.16 0.15 -0.15 0.15 -0.15 0.15

$$$$
