
     RDKit          3D

 24 25  0  0  0  0  0  0  0  0999 V2000
  -16.7510   17.3460   27.6810 S   0  0  0  0  0  0  0  0  0  0  0  0
  -16.0820   16.2320   28.3230 O   0  0  0  0  0  0  0  0  0  0  0  0
  -18.0150   17.8500   28.1930 O   0  0  0  0  0  0  0  0  0  0  0  0
  -16.9800   16.9660   25.9520 C   0  0  0  0  0  0  0  0  0  0  0  0
  -17.6960   17.6840   25.5420 H   0  0  0  0  0  0  0  0  0  0  0  0
  -16.0140   17.0830   25.4530 H   0  0  0  0  0  0  0  0  0  0  0  0
  -17.4980   15.5790   25.8050 C   0  0  0  0  0  0  0  0  0  0  0  0
  -17.3960   14.6380   26.7940 N   0  0  0  0  0  0  0  0  0  0  0  0
  -16.9360   14.7580   27.7080 H   0  0  0  0  0  0  0  0  0  0  0  0
  -18.0070   13.5070   26.3640 C   0  0  0  0  0  0  0  0  0  0  0  0
  -18.4680   13.8150   25.1010 C   0  0  0  0  0  0  0  0  0  0  0  0
  -18.1360   15.1140   24.7820 N   0  0  0  0  0  0  0  0  0  0  0  0
  -19.1600   12.8380   24.3720 C   0  0  0  0  0  0  0  0  0  0  0  0
  -19.5160   13.0670   23.4020 H   0  0  0  0  0  0  0  0  0  0  0  0
  -19.3620   11.5860   24.9390 C   0  0  0  0  0  0  0  0  0  0  0  0
  -19.8830   10.8400   24.3960 H   0  0  0  0  0  0  0  0  0  0  0  0
  -18.8790   11.2950   26.2360 C   0  0  0  0  0  0  0  0  0  0  0  0
  -19.0450   10.3320   26.6500 H   0  0  0  0  0  0  0  0  0  0  0  0
  -18.1950   12.2540   26.9640 C   0  0  0  0  0  0  0  0  0  0  0  0
  -17.8270   12.0500   27.9370 H   0  0  0  0  0  0  0  0  0  0  0  0
  -15.6090   18.7040   27.6370 C   0  0  0  0  0  0  0  0  0  0  0  0
  -14.6850   18.3720   27.1610 H   0  0  0  0  0  0  0  0  0  0  0  0
  -15.4100   19.0150   28.6650 H   0  0  0  0  0  0  0  0  0  0  0  0
  -16.0590   19.5270   27.0780 H   0  0  0  0  0  0  0  0  0  0  0  0
  1  2  2  0
  1  3  2  0
  1  4  1  0
  1 21  1  0
  4  5  1  0
  4  6  1  0
  4  7  1  0
  7  8  1  0
  7 12  2  0
  8  9  1  0
  8 10  1  0
 10 11  2  0
 10 19  1  0
 11 12  1  0
 11 13  1  0
 13 14  1  0
 13 15  2  0
 15 16  1  0
 15 17  1  0
 17 18  1  0
 17 19  2  0
 19 20  1  0
 21 22  1  0
 21 23  1  0
 21 24  1  0
M  END
>  <EnInt_ele>  (1) 
-37.39866

>  <EnInt_vdw>  (1) 
5.247265

>  <EnInt_tot>  (1) 
-32.15139

>  <Charges>  (1) 
1.09 -0.65 -0.65 0.29 0.00 0.00 0.01 0.03 0.27 -0.15 0.23 -0.57 -0.15 0.15 -0.15 0.15 -0.15 0.15 -0.15 0.15 0.10 0.00 0.00 0.00

$$$$
