
     RDKit          3D

 16 17  0  0  0  0  0  0  0  0999 V2000
  -17.9650   11.8980   24.3500 Br  0  0  0  0  0  0  0  0  0  0  0  0
  -18.6500   13.2120   25.5310 C   0  0  0  0  0  0  0  0  0  0  0  0
  -19.7410   12.9750   26.4110 C   0  0  0  0  0  0  0  0  0  0  0  0
  -20.1550   14.0430   27.2430 C   0  0  0  0  0  0  0  0  0  0  0  0
  -19.5360   15.2590   27.2100 N   0  0  0  0  0  0  0  0  0  0  0  0
  -18.5380   15.4590   26.3990 C   0  0  0  0  0  0  0  0  0  0  0  0
  -18.0750   16.4160   26.3960 H   0  0  0  0  0  0  0  0  0  0  0  0
  -18.0620   14.4530   25.5370 C   0  0  0  0  0  0  0  0  0  0  0  0
  -17.2470   14.6660   24.8950 H   0  0  0  0  0  0  0  0  0  0  0  0
  -21.1930   13.9070   28.1180 N   0  0  0  0  0  0  0  0  0  0  0  0
  -21.8290   12.7720   28.2010 C   0  0  0  0  0  0  0  0  0  0  0  0
  -22.6330   12.6950   28.8910 H   0  0  0  0  0  0  0  0  0  0  0  0
  -21.4800   11.6580   27.4080 C   0  0  0  0  0  0  0  0  0  0  0  0
  -22.0280   10.7570   27.5140 H   0  0  0  0  0  0  0  0  0  0  0  0
  -20.4440   11.7470   26.5140 C   0  0  0  0  0  0  0  0  0  0  0  0
  -20.1800   10.9120   25.9180 H   0  0  0  0  0  0  0  0  0  0  0  0
  1  2  1  0
  2  3  2  0
  2  8  1  0
  3  4  1  0
  3 15  1  0
  4  5  2  0
  4 10  1  0
  5  6  1  0
  6  7  1  0
  6  8  2  0
  8  9  1  0
 10 11  2  0
 11 12  1  0
 11 13  1  0
 13 14  1  0
 13 15  2  0
 15 16  1  0
M  END
>  <EnInt_ele>  (1) 
-1.070204

>  <EnInt_vdw>  (1) 
1.373711

>  <EnInt_tot>  (1) 
0.3035071

>  <Charges>  (1) 
-0.11 0.11 0.00 0.62 -0.62 0.16 0.15 -0.15 0.15 -0.62 0.16 0.15 -0.15 0.15 -0.15 0.15

$$$$
