
     RDKit          3D

 29 30  0  0  1  0  0  0  0  0999 V2000
  -18.7050   11.5320   25.2280 C   0  0  0  0  0  0  0  0  0  0  0  0
  -19.5110   10.8560   24.9230 H   0  0  0  0  0  0  0  0  0  0  0  0
  -18.1060   11.0290   25.9960 H   0  0  0  0  0  0  0  0  0  0  0  0
  -18.0430   11.6930   24.3700 H   0  0  0  0  0  0  0  0  0  0  0  0
  -19.2520   12.8610   25.7400 C   0  0  0  0  0  0  0  0  0  0  0  0
  -18.1550   13.7020   26.0960 O   0  0  0  0  0  0  0  0  0  0  0  0
  -17.6750   13.2630   26.8170 H   0  0  0  0  0  0  0  0  0  0  0  0
  -20.1860   12.6710   26.8930 C   0  0  0  0  0  0  0  0  0  0  0  0
  -19.8260   12.4260   28.2140 C   0  0  0  0  0  0  0  0  0  0  0  0
  -18.8350   12.3360   28.5790 H   0  0  0  0  0  0  0  0  0  0  0  0
  -20.8760   12.3160   28.9790 N   0  0  0  0  0  0  0  0  0  0  0  0
  -21.9410   12.4930   28.1450 N   0  0  0  0  0  0  0  0  0  0  0  0
  -23.2960   12.4380   28.6410 C   0  0  0  0  0  0  0  0  0  0  0  0
  -23.5230   11.3850   28.8540 H   0  0  0  0  0  0  0  0  0  0  0  0
  -23.5420   13.2640   29.9020 C   0  0  0  0  0  0  0  0  0  0  0  0
  -23.1200   12.7930   30.7970 H   0  0  0  0  0  0  0  0  0  0  0  0
  -23.1010   14.2650   29.8200 H   0  0  0  0  0  0  0  0  0  0  0  0
  -25.0610   13.3790   29.9760 C   0  0  0  0  0  0  0  0  0  0  0  0
  -25.4720   12.5890   30.6160 H   0  0  0  0  0  0  0  0  0  0  0  0
  -25.3660   14.3390   30.4060 H   0  0  0  0  0  0  0  0  0  0  0  0
  -25.5740   13.2060   28.5460 C   0  0  0  0  0  0  0  0  0  0  0  0
  -26.1480   14.0760   28.2120 H   0  0  0  0  0  0  0  0  0  0  0  0
  -26.2390   12.3360   28.4940 H   0  0  0  0  0  0  0  0  0  0  0  0
  -24.3430   12.9860   27.6730 C   0  0  0  0  0  0  0  0  0  0  0  0
  -24.0260   13.9410   27.2360 H   0  0  0  0  0  0  0  0  0  0  0  0
  -24.5440   12.2980   26.8450 H   0  0  0  0  0  0  0  0  0  0  0  0
  -21.5380   12.7120   26.8760 C   0  0  0  0  0  0  0  0  0  0  0  0
  -22.2170   12.8710   26.0780 H   0  0  0  0  0  0  0  0  0  0  0  0
  -19.7880   13.3660   24.9270 H   0  0  0  0  0  0  0  0  0  0  0  0
  1  2  1  0
  1  3  1  0
  1  4  1  0
  1  5  1  0
  5  6  1  0
  5  8  1  0
  5 29  1  0
  6  7  1  0
  8  9  1  0
  8 27  2  0
  9 10  1  0
  9 11  2  0
 11 12  1  0
 12 13  1  0
 12 27  1  0
 13 14  1  0
 13 15  1  0
 13 24  1  0
 15 16  1  0
 15 17  1  0
 15 18  1  0
 18 19  1  0
 18 20  1  0
 18 21  1  0
 21 22  1  0
 21 23  1  0
 21 24  1  0
 24 25  1  0
 24 26  1  0
 27 28  1  0
M  END
>  <EnInt_ele>  (1) 
-6.82121e-013

>  <EnInt_vdw>  (1) 
-0.9397045

>  <EnInt_tot>  (1) 
-0.9397045

>  <Charges>  (1) 
0.00 0.00 0.00 0.00 0.46 -0.68 0.40 -0.18 0.14 0.15 -0.71 0.31 0.26 0.00 0.00 0.00 0.00 0.00 0.00 0.00 0.00 0.00 0.00 0.00 0.00 0.00 -0.30 0.15 0.00

$$$$
