
     RDKit          3D

 23 23  0  0  0  0  0  0  0  0999 V2000
  -24.2670   12.4270   30.0210 Cl  0  0  0  0  0  0  0  0  0  0  0  0
  -22.9440   12.5410   28.9250 C   0  0  0  0  0  0  0  0  0  0  0  0
  -23.0570   13.0540   27.6220 C   0  0  0  0  0  0  0  0  0  0  0  0
  -24.2980   13.5650   27.0030 C   0  0  0  0  0  0  0  0  0  0  0  0
  -24.7640   14.6930   27.0410 O   0  0  0  0  0  0  0  0  0  0  0  0
  -25.0540   12.6940   26.2880 N   0  0  0  0  0  0  0  0  0  0  0  0
  -25.9210   13.0390   25.8590 H   0  0  0  0  0  0  0  0  0  0  0  0
  -24.7540   11.7150   26.1970 H   0  0  0  0  0  0  0  0  0  0  0  0
  -21.9430   13.0960   26.8490 N   0  0  0  0  0  0  0  0  0  0  0  0
  -20.7800   12.6610   27.3110 C   0  0  0  0  0  0  0  0  0  0  0  0
  -19.5740   12.7300   26.4110 C   0  0  0  0  0  0  0  0  0  0  0  0
  -19.9220   12.7550   25.3700 H   0  0  0  0  0  0  0  0  0  0  0  0
  -18.7730   14.0050   26.6660 C   0  0  0  0  0  0  0  0  0  0  0  0
  -18.3710   14.0350   27.6860 H   0  0  0  0  0  0  0  0  0  0  0  0
  -19.3990   14.8950   26.5310 H   0  0  0  0  0  0  0  0  0  0  0  0
  -17.9300   14.0790   25.9710 H   0  0  0  0  0  0  0  0  0  0  0  0
  -18.6980   11.4880   26.5780 C   0  0  0  0  0  0  0  0  0  0  0  0
  -18.2920   11.4120   27.5930 H   0  0  0  0  0  0  0  0  0  0  0  0
  -17.8540   11.5130   25.8810 H   0  0  0  0  0  0  0  0  0  0  0  0
  -19.2700   10.5750   26.3810 H   0  0  0  0  0  0  0  0  0  0  0  0
  -20.6510   12.1690   28.5470 N   0  0  0  0  0  0  0  0  0  0  0  0
  -21.6960   12.1010   29.3500 C   0  0  0  0  0  0  0  0  0  0  0  0
  -21.5710   11.7070   30.3270 H   0  0  0  0  0  0  0  0  0  0  0  0
  1  2  1  0
  2  3  2  0
  2 22  1  0
  3  4  1  0
  3  9  1  0
  4  5  2  0
  4  6  1  0
  6  7  1  0
  6  8  1  0
  9 10  2  0
 10 11  1  0
 10 21  1  0
 11 12  1  0
 11 13  1  0
 11 17  1  0
 13 14  1  0
 13 15  1  0
 13 16  1  0
 17 18  1  0
 17 19  1  0
 17 20  1  0
 21 22  2  0
 22 23  1  0
M  END
>  <EnInt_ele>  (1) 
0.3909545

>  <EnInt_vdw>  (1) 
-0.4580728

>  <EnInt_tot>  (1) 
-0.06711827

>  <Charges>  (1) 
-0.18 0.18 0.40 0.54 -0.57 -0.80 0.37 0.37 -0.62 0.48 0.14 0.00 0.00 0.00 0.00 0.00 0.00 0.00 0.00 0.00 -0.62 0.16 0.15

$$$$
