
     RDKit          3D

 21 21  0  0  0  0  0  0  0  0999 V2000
  -17.2140   15.5220   25.5800 Br  0  0  0  0  0  0  0  0  0  0  0  0
  -18.6120   14.3720   26.1300 C   0  0  0  0  0  0  0  0  0  0  0  0
  -18.8030   13.1510   25.4920 C   0  0  0  0  0  0  0  0  0  0  0  0
  -18.1740   12.8540   24.6960 H   0  0  0  0  0  0  0  0  0  0  0  0
  -19.8370   12.3160   25.9040 C   0  0  0  0  0  0  0  0  0  0  0  0
  -19.9950   11.1340   25.2290 O   0  0  0  0  0  0  0  0  0  0  0  0
  -18.8860   10.2040   25.2650 C   0  0  0  0  0  0  0  0  0  0  0  0
  -19.0830    9.4130   24.5440 H   0  0  0  0  0  0  0  0  0  0  0  0
  -18.8120    9.8010   26.2740 H   0  0  0  0  0  0  0  0  0  0  0  0
  -17.9700   10.7330   25.0050 H   0  0  0  0  0  0  0  0  0  0  0  0
  -20.6850   12.6710   26.9630 C   0  0  0  0  0  0  0  0  0  0  0  0
  -21.8060   11.7620   27.4680 C   0  0  0  0  0  0  0  0  0  0  0  0
  -21.6900   11.6220   28.5310 H   0  0  0  0  0  0  0  0  0  0  0  0
  -21.8240   10.8270   26.9330 H   0  0  0  0  0  0  0  0  0  0  0  0
  -23.1330   12.4500   27.2440 C   0  0  0  0  0  0  0  0  0  0  0  0
  -23.6820   12.2960   26.1290 O   0  0  0  0  0  0  0  0  0  0  0  0
  -23.5810   13.1710   28.1630 O   0  0  0  0  0  0  0  0  0  0  0  0
  -20.4830   13.9020   27.5850 C   0  0  0  0  0  0  0  0  0  0  0  0
  -21.1290   14.1970   28.3750 H   0  0  0  0  0  0  0  0  0  0  0  0
  -19.4560   14.7480   27.1740 C   0  0  0  0  0  0  0  0  0  0  0  0
  -19.3200   15.6810   27.6550 H   0  0  0  0  0  0  0  0  0  0  0  0
  1  2  1  0
  2  3  2  0
  2 20  1  0
  3  4  1  0
  3  5  1  0
  5  6  1  0
  5 11  2  0
  6  7  1  0
  7  8  1  0
  7  9  1  0
  7 10  1  0
 11 12  1  0
 11 18  1  0
 12 13  1  0
 12 14  1  0
 12 15  1  0
 15 16  1  0
 15 17  2  0
 18 19  1  0
 18 20  2  0
 20 21  1  0
M  END
>  <EnInt_ele>  (1) 
1.975896

>  <EnInt_vdw>  (1) 
8.387002

>  <EnInt_tot>  (1) 
10.3629

>  <Charges>  (1) 
-0.11 0.11 -0.15 0.15 0.08 -0.36 0.28 0.00 0.00 0.00 -0.14 0.21 0.00 0.00 0.66 -0.15 -0.57 -0.15 0.15 -0.15 0.15

$$$$
