
     RDKit          3D

 27 28  0  0  0  0  0  0  0  0999 V2000
  -20.6400   13.8520   27.7960 F   0  0  0  0  0  0  0  0  0  0  0  0
  -19.9620   13.2010   26.8380 C   0  0  0  0  0  0  0  0  0  0  0  0
  -18.9680   13.8550   26.0830 C   0  0  0  0  0  0  0  0  0  0  0  0
  -18.6130   15.1860   26.2640 N   0  0  0  0  0  0  0  0  0  0  0  0
  -19.3440   15.8880   26.2750 H   0  0  0  0  0  0  0  0  0  0  0  0
  -17.2510   15.6560   26.4510 C   0  0  0  0  0  0  0  0  0  0  0  0
  -16.7500   15.0280   27.1980 H   0  0  0  0  0  0  0  0  0  0  0  0
  -16.6930   15.5530   25.5130 H   0  0  0  0  0  0  0  0  0  0  0  0
  -17.1540   17.0840   26.8950 C   0  0  0  0  0  0  0  0  0  0  0  0
  -16.0580   17.9320   26.7520 C   0  0  0  0  0  0  0  0  0  0  0  0
  -14.7370   17.6410   26.1440 C   0  0  0  0  0  0  0  0  0  0  0  0
  -14.8600   17.2270   25.1380 H   0  0  0  0  0  0  0  0  0  0  0  0
  -14.1910   16.9110   26.7520 H   0  0  0  0  0  0  0  0  0  0  0  0
  -14.1200   18.5420   26.0620 H   0  0  0  0  0  0  0  0  0  0  0  0
  -16.3150   19.1130   27.2400 N   0  0  0  0  0  0  0  0  0  0  0  0
  -17.5880   19.0340   27.7000 N   0  0  0  0  0  0  0  0  0  0  0  0
  -18.0730   19.8340   28.1480 H   0  0  0  0  0  0  0  0  0  0  0  0
  -18.1220   17.8120   27.4990 C   0  0  0  0  0  0  0  0  0  0  0  0
  -19.1090   17.5680   27.7910 H   0  0  0  0  0  0  0  0  0  0  0  0
  -18.2860   13.1280   25.1060 C   0  0  0  0  0  0  0  0  0  0  0  0
  -17.5250   13.5950   24.5370 H   0  0  0  0  0  0  0  0  0  0  0  0
  -18.6060   11.7900   24.8800 C   0  0  0  0  0  0  0  0  0  0  0  0
  -18.0870   11.2430   24.1340 H   0  0  0  0  0  0  0  0  0  0  0  0
  -19.6020   11.1590   25.6290 C   0  0  0  0  0  0  0  0  0  0  0  0
  -19.8370   10.1400   25.4480 H   0  0  0  0  0  0  0  0  0  0  0  0
  -20.2830   11.8690   26.6150 C   0  0  0  0  0  0  0  0  0  0  0  0
  -21.0370   11.4000   27.1950 H   0  0  0  0  0  0  0  0  0  0  0  0
  1  2  1  0
  2  3  2  0
  2 26  1  0
  3  4  1  0
  3 20  1  0
  4  5  1  0
  4  6  1  0
  6  7  1  0
  6  8  1  0
  6  9  1  0
  9 10  1  0
  9 18  2  0
 10 11  1  0
 10 15  2  0
 11 12  1  0
 11 13  1  0
 11 14  1  0
 15 16  1  0
 16 17  1  0
 16 18  1  0
 18 19  1  0
 20 21  1  0
 20 22  2  0
 22 23  1  0
 22 24  1  0
 24 25  1  0
 24 26  2  0
 26 27  1  0
M  END
>  <EnInt_ele>  (1) 
-1.40537

>  <EnInt_vdw>  (1) 
-0.06700021

>  <EnInt_tot>  (1) 
-1.47237

>  <Charges>  (1) 
-0.19 0.19 0.10 -0.87 0.40 0.55 0.00 0.00 -0.18 0.11 0.18 0.00 0.00 0.00 -0.71 0.30 0.27 -0.30 0.15 -0.15 0.15 -0.15 0.15 -0.15 0.15 -0.15 0.15

$$$$
