
     RDKit          3D

 39 40  0  0  0  0  0  0  0  0999 V2000
  -23.8833   12.1399   26.3210 O   0  0  0  0  0  0  0  0  0  0  0  0
  -23.4280   12.1239   27.4602 C   0  0  0  0  0  0  0  0  0  0  0  0
  -22.3043   11.1581   27.8334 C   0  0  0  0  0  0  0  0  0  0  0  0
  -22.6308   10.6117   28.7262 H   0  0  0  0  0  0  0  0  0  0  0  0
  -22.1858   10.3971   27.0524 H   0  0  0  0  0  0  0  0  0  0  0  0
  -21.0615   11.7686   28.1385 O   0  0  0  0  0  0  0  0  0  0  0  0
  -20.3421   12.3484   27.1248 C   0  0  0  0  0  0  0  0  0  0  0  0
  -20.1273   13.7159   26.9582 C   0  0  0  0  0  0  0  0  0  0  0  0
  -20.5353   14.4206   27.6346 H   0  0  0  0  0  0  0  0  0  0  0  0
  -19.3664   14.1608   25.8817 C   0  0  0  0  0  0  0  0  0  0  0  0
  -19.1956   15.1998   25.7545 H   0  0  0  0  0  0  0  0  0  0  0  0
  -18.8305   13.2510   24.9698 C   0  0  0  0  0  0  0  0  0  0  0  0
  -17.9825   13.7348   23.8280 C   0  0  0  0  0  0  0  0  0  0  0  0
  -16.9318   13.7677   24.1327 H   0  0  0  0  0  0  0  0  0  0  0  0
  -18.0800   13.0747   22.9607 H   0  0  0  0  0  0  0  0  0  0  0  0
  -18.2899   14.7363   23.5100 H   0  0  0  0  0  0  0  0  0  0  0  0
  -19.0620   11.8854   25.1422 C   0  0  0  0  0  0  0  0  0  0  0  0
  -18.6633   11.1886   24.4514 H   0  0  0  0  0  0  0  0  0  0  0  0
  -19.8209   11.4325   26.2168 C   0  0  0  0  0  0  0  0  0  0  0  0
  -20.0057   10.3973   26.3451 H   0  0  0  0  0  0  0  0  0  0  0  0
  -23.9538   12.9626   28.3903 N   0  0  0  0  0  0  0  0  0  0  0  0
  -24.9294   13.9877   27.9921 C   0  0  0  0  0  0  0  0  0  0  0  0
  -24.4257   14.9575   28.0942 H   0  0  0  0  0  0  0  0  0  0  0  0
  -25.2177   13.8867   26.9416 H   0  0  0  0  0  0  0  0  0  0  0  0
  -26.1857   13.9559   28.8661 C   0  0  0  0  0  0  0  0  0  0  0  0
  -26.7353   13.0161   28.7487 H   0  0  0  0  0  0  0  0  0  0  0  0
  -26.8394   14.8031   28.6390 H   0  0  0  0  0  0  0  0  0  0  0  0
  -25.7906   14.0665   30.3307 N   0  0  0  0  0  0  0  0  0  0  0  0
  -25.2915   14.9595   30.4508 H   0  0  0  0  0  0  0  0  0  0  0  0
  -26.9909   14.1192   31.2305 C   0  0  0  0  0  0  0  0  0  0  0  0
  -26.6388   14.2546   32.2566 H   0  0  0  0  0  0  0  0  0  0  0  0
  -27.6019   14.9748   30.9296 H   0  0  0  0  0  0  0  0  0  0  0  0
  -27.5476   13.1845   31.1273 H   0  0  0  0  0  0  0  0  0  0  0  0
  -24.8371   12.9509   30.7226 C   0  0  0  0  0  0  0  0  0  0  0  0
  -25.3865   12.0084   30.6250 H   0  0  0  0  0  0  0  0  0  0  0  0
  -24.5558   13.1099   31.7681 H   0  0  0  0  0  0  0  0  0  0  0  0
  -23.5973   12.9664   29.8158 C   0  0  0  0  0  0  0  0  0  0  0  0
  -22.9734   12.1108   30.0787 H   0  0  0  0  0  0  0  0  0  0  0  0
  -23.0095   13.8750   29.9959 H   0  0  0  0  0  0  0  0  0  0  0  0
  1  2  2  0
  2  3  1  0
  2 21  1  0
  3  4  1  0
  3  5  1  0
  3  6  1  0
  6  7  1  0
  7  8  1  0
  7 19  2  0
  8  9  1  0
  8 10  2  0
 10 11  1  0
 10 12  1  0
 12 13  1  0
 12 17  2  0
 13 14  1  0
 13 15  1  0
 13 16  1  0
 17 18  1  0
 17 19  1  0
 19 20  1  0
 21 22  1  0
 21 37  1  0
 22 23  1  0
 22 24  1  0
 22 25  1  0
 25 26  1  0
 25 27  1  0
 25 28  1  0
 28 29  1  0
 28 30  1  0
 28 34  1  0
 30 31  1  0
 30 32  1  0
 30 33  1  0
 34 35  1  0
 34 36  1  0
 34 37  1  0
 37 38  1  0
 37 39  1  0
M  END
$$$$
