
     RDKit          3D

 20 20  0  0  0  0  0  0  0  0999 V2000
  -18.4270   14.9740   24.5820 O   0  0  0  0  0  0  0  0  0  0  0  0
  -18.4500   13.7640   24.8830 C   0  0  0  0  0  0  0  0  0  0  0  0
  -19.1720   13.3590   26.0220 N   0  0  0  0  0  0  0  0  0  0  0  0
  -19.8720   14.3630   26.8180 C   0  0  0  0  0  0  0  0  0  0  0  0
  -20.9390   14.1200   26.8490 H   0  0  0  0  0  0  0  0  0  0  0  0
  -19.7690   15.3690   26.4030 H   0  0  0  0  0  0  0  0  0  0  0  0
  -19.4580   14.3720   27.8320 H   0  0  0  0  0  0  0  0  0  0  0  0
  -19.2150   12.0000   26.4060 C   0  0  0  0  0  0  0  0  0  0  0  0
  -19.9700   11.5990   27.6420 C   0  0  0  0  0  0  0  0  0  0  0  0
  -19.5540   12.0900   28.5280 H   0  0  0  0  0  0  0  0  0  0  0  0
  -19.9190   10.5190   27.8180 H   0  0  0  0  0  0  0  0  0  0  0  0
  -21.0290   11.8600   27.5540 H   0  0  0  0  0  0  0  0  0  0  0  0
  -18.5790   11.0620   25.6400 C   0  0  0  0  0  0  0  0  0  0  0  0
  -18.6120   10.0410   25.9190 H   0  0  0  0  0  0  0  0  0  0  0  0
  -17.8560   11.4200   24.4700 C   0  0  0  0  0  0  0  0  0  0  0  0
  -17.3680   10.6720   23.9000 H   0  0  0  0  0  0  0  0  0  0  0  0
  -17.7840   12.7300   24.1010 C   0  0  0  0  0  0  0  0  0  0  0  0
  -17.0970   13.1530   22.9900 N   0  0  0  0  0  0  0  0  0  0  0  0
  -16.6080   12.5010   22.3930 H   0  0  0  0  0  0  0  0  0  0  0  0
  -17.0980   14.1500   22.7900 H   0  0  0  0  0  0  0  0  0  0  0  0
  1  2  2  0
  2  3  1  0
  2 17  1  0
  3  4  1  0
  3  8  1  0
  4  5  1  0
  4  6  1  0
  4  7  1  0
  8  9  1  0
  8 13  2  0
  9 10  1  0
  9 11  1  0
  9 12  1  0
 13 14  1  0
 13 15  1  0
 15 16  1  0
 15 17  2  0
 17 18  1  0
 18 19  1  0
 18 20  1  0
M  END
>  <EnInt_ele>  (1) 
-0.4273497

>  <EnInt_vdw>  (1) 
3.121461

>  <EnInt_tot>  (1) 
2.694111

>  <Charges>  (1) 
-0.57 0.62 -0.47 0.30 0.00 0.00 0.00 -0.03 0.14 0.00 0.00 0.00 -0.15 0.15 -0.15 0.15 0.11 -0.90 0.40 0.40

$$$$
