
     RDKit          3D

 17 18  0  0  0  0  0  0  0  0999 V2000
  -17.2550   13.3700   23.4560 Br  0  0  0  0  0  0  0  0  0  0  0  0
  -18.4910   13.3050   24.8860 C   0  0  0  0  0  0  0  0  0  0  0  0
  -19.2220   12.1430   25.1190 C   0  0  0  0  0  0  0  0  0  0  0  0
  -19.1030   11.2870   24.5080 H   0  0  0  0  0  0  0  0  0  0  0  0
  -20.1180   12.1440   26.1800 C   0  0  0  0  0  0  0  0  0  0  0  0
  -20.9450   11.1100   26.5950 N   0  0  0  0  0  0  0  0  0  0  0  0
  -21.0280   10.1740   26.1810 H   0  0  0  0  0  0  0  0  0  0  0  0
  -21.6830   11.4780   27.6690 C   0  0  0  0  0  0  0  0  0  0  0  0
  -22.4660   10.7080   28.1750 O   0  0  0  0  0  0  0  0  0  0  0  0
  -21.3340   12.9160   28.0440 C   0  0  0  0  0  0  0  0  0  0  0  0
  -22.2190   13.5500   27.9480 H   0  0  0  0  0  0  0  0  0  0  0  0
  -20.9110   12.9450   29.0500 H   0  0  0  0  0  0  0  0  0  0  0  0
  -20.3080   13.2370   27.0020 C   0  0  0  0  0  0  0  0  0  0  0  0
  -19.5760   14.3970   26.7710 C   0  0  0  0  0  0  0  0  0  0  0  0
  -19.7050   15.2480   27.3900 H   0  0  0  0  0  0  0  0  0  0  0  0
  -18.6670   14.4270   25.7100 C   0  0  0  0  0  0  0  0  0  0  0  0
  -18.1040   15.3050   25.5240 H   0  0  0  0  0  0  0  0  0  0  0  0
  1  2  1  0
  2  3  2  0
  2 16  1  0
  3  4  1  0
  3  5  1  0
  5  6  1  0
  5 13  2  0
  6  7  1  0
  6  8  1  0
  8  9  2  0
  8 10  1  0
 10 11  1  0
 10 12  1  0
 10 13  1  0
 13 14  1  0
 14 15  1  0
 14 16  2  0
 16 17  1  0
M  END
>  <EnInt_ele>  (1) 
-0.03596317

>  <EnInt_vdw>  (1) 
7.637742

>  <EnInt_tot>  (1) 
7.601779

>  <Charges>  (1) 
-0.11 0.11 -0.15 0.15 0.12 -0.55 0.37 0.57 -0.57 0.21 0.00 0.00 -0.14 -0.15 0.15 -0.15 0.15

$$$$
