
     RDKit          3D

 27 28  0  0  0  0  0  0  0  0999 V2000
  -17.5270   13.5000   23.2310 F   0  0  0  0  0  0  0  0  0  0  0  0
  -18.0620   13.1280   24.4060 C   0  0  0  0  0  0  0  0  0  0  0  0
  -17.9510   13.9770   25.5160 C   0  0  0  0  0  0  0  0  0  0  0  0
  -17.2850   15.1840   25.3580 N   0  0  0  0  0  0  0  0  0  0  0  0
  -17.3210   15.6130   24.4380 H   0  0  0  0  0  0  0  0  0  0  0  0
  -16.5490   15.8810   26.3940 C   0  0  0  0  0  0  0  0  0  0  0  0
  -16.3520   15.1940   27.2270 H   0  0  0  0  0  0  0  0  0  0  0  0
  -15.5740   16.1890   25.9960 H   0  0  0  0  0  0  0  0  0  0  0  0
  -17.2440   17.0880   26.9480 C   0  0  0  0  0  0  0  0  0  0  0  0
  -16.6680   18.2250   27.4130 C   0  0  0  0  0  0  0  0  0  0  0  0
  -15.2560   18.6530   27.5380 C   0  0  0  0  0  0  0  0  0  0  0  0
  -14.6590   18.2760   26.7020 H   0  0  0  0  0  0  0  0  0  0  0  0
  -14.8250   18.2680   28.4680 H   0  0  0  0  0  0  0  0  0  0  0  0
  -15.1680   19.7440   27.5440 H   0  0  0  0  0  0  0  0  0  0  0  0
  -17.7020   19.0060   27.8080 N   0  0  0  0  0  0  0  0  0  0  0  0
  -17.6060   19.9540   28.2200 H   0  0  0  0  0  0  0  0  0  0  0  0
  -18.9050   18.4130   27.6110 N   0  0  0  0  0  0  0  0  0  0  0  0
  -18.6170   17.2520   27.0940 C   0  0  0  0  0  0  0  0  0  0  0  0
  -19.3550   16.5370   26.8300 H   0  0  0  0  0  0  0  0  0  0  0  0
  -18.5100   13.5740   26.7320 C   0  0  0  0  0  0  0  0  0  0  0  0
  -18.4180   14.1900   27.5880 H   0  0  0  0  0  0  0  0  0  0  0  0
  -19.1720   12.3480   26.8160 C   0  0  0  0  0  0  0  0  0  0  0  0
  -19.5940   12.0420   27.7390 H   0  0  0  0  0  0  0  0  0  0  0  0
  -19.2780   11.5160   25.6990 C   0  0  0  0  0  0  0  0  0  0  0  0
  -19.7810   10.5870   25.7760 H   0  0  0  0  0  0  0  0  0  0  0  0
  -18.7170   11.9080   24.4840 C   0  0  0  0  0  0  0  0  0  0  0  0
  -18.7860   11.2850   23.6290 H   0  0  0  0  0  0  0  0  0  0  0  0
  1  2  1  0
  2  3  2  0
  2 26  1  0
  3  4  1  0
  3 20  1  0
  4  5  1  0
  4  6  1  0
  6  7  1  0
  6  8  1  0
  6  9  1  0
  9 10  2  0
  9 18  1  0
 10 11  1  0
 10 15  1  0
 11 12  1  0
 11 13  1  0
 11 14  1  0
 15 16  1  0
 15 17  1  0
 17 18  2  0
 18 19  1  0
 20 21  1  0
 20 22  2  0
 22 23  1  0
 22 24  1  0
 24 25  1  0
 24 26  2  0
 26 27  1  0
M  END
>  <EnInt_ele>  (1) 
0.1460744

>  <EnInt_vdw>  (1) 
1.019194

>  <EnInt_tot>  (1) 
1.165269

>  <Charges>  (1) 
-0.19 0.19 0.10 -0.87 0.40 0.55 0.00 0.00 -0.18 -0.33 0.18 0.00 0.00 0.00 0.30 0.27 -0.71 0.14 0.15 -0.15 0.15 -0.15 0.15 -0.15 0.15 -0.15 0.15

$$$$
