
     RDKit          3D

 32 33  0  0  0  0  0  0  0  0999 V2000
  -16.1920   15.4080   27.9520 O   0  0  0  0  0  0  0  0  0  0  0  0
  -16.4300   15.3620   26.7550 C   0  0  0  0  0  0  0  0  0  0  0  0
  -15.6520   15.8940   25.7760 O   0  0  0  0  0  0  0  0  0  0  0  0
  -14.9790   17.1000   26.1460 C   0  0  0  0  0  0  0  0  0  0  0  0
  -14.3190   16.9230   27.0000 H   0  0  0  0  0  0  0  0  0  0  0  0
  -15.7060   17.8870   26.3740 H   0  0  0  0  0  0  0  0  0  0  0  0
  -14.3720   17.4230   25.2970 H   0  0  0  0  0  0  0  0  0  0  0  0
  -17.5320   14.7950   26.1920 N   0  0  0  0  0  0  0  0  0  0  0  0
  -17.5850   14.9240   25.1770 H   0  0  0  0  0  0  0  0  0  0  0  0
  -18.5870   14.0860   26.8060 C   0  0  0  0  0  0  0  0  0  0  0  0
  -18.4020   13.2350   27.8980 C   0  0  0  0  0  0  0  0  0  0  0  0
  -17.4390   13.0840   28.3080 H   0  0  0  0  0  0  0  0  0  0  0  0
  -19.4980   12.5750   28.4430 C   0  0  0  0  0  0  0  0  0  0  0  0
  -19.3570   11.9280   29.2720 H   0  0  0  0  0  0  0  0  0  0  0  0
  -20.7750   12.7520   27.9070 C   0  0  0  0  0  0  0  0  0  0  0  0
  -21.9580   12.0140   28.4920 C   0  0  0  0  0  0  0  0  0  0  0  0
  -21.7020   11.6570   29.4980 H   0  0  0  0  0  0  0  0  0  0  0  0
  -22.1500   11.1000   27.9150 H   0  0  0  0  0  0  0  0  0  0  0  0
  -23.2150   12.8460   28.5480 C   0  0  0  0  0  0  0  0  0  0  0  0
  -24.1040   12.8850   27.4800 C   0  0  0  0  0  0  0  0  0  0  0  0
  -23.9240   12.3140   26.6070 H   0  0  0  0  0  0  0  0  0  0  0  0
  -25.2420   13.6810   27.5560 C   0  0  0  0  0  0  0  0  0  0  0  0
  -25.9250   13.7170   26.7440 H   0  0  0  0  0  0  0  0  0  0  0  0
  -25.5130   14.4180   28.6300 N   0  0  0  0  0  0  0  0  0  0  0  0
  -24.6750   14.3990   29.6650 C   0  0  0  0  0  0  0  0  0  0  0  0
  -24.9120   14.9980   30.5080 H   0  0  0  0  0  0  0  0  0  0  0  0
  -23.5180   13.6260   29.6560 C   0  0  0  0  0  0  0  0  0  0  0  0
  -22.8710   13.6410   30.4950 H   0  0  0  0  0  0  0  0  0  0  0  0
  -20.9450   13.5960   26.8070 C   0  0  0  0  0  0  0  0  0  0  0  0
  -21.9080   13.7360   26.3870 H   0  0  0  0  0  0  0  0  0  0  0  0
  -19.8560   14.2610   26.2540 C   0  0  0  0  0  0  0  0  0  0  0  0
  -19.9910   14.9030   25.4220 H   0  0  0  0  0  0  0  0  0  0  0  0
  1  2  2  0
  2  3  1  0
  2  8  1  0
  3  4  1  0
  4  5  1  0
  4  6  1  0
  4  7  1  0
  8  9  1  0
  8 10  1  0
 10 11  2  0
 10 31  1  0
 11 12  1  0
 11 13  1  0
 13 14  1  0
 13 15  2  0
 15 16  1  0
 15 29  1  0
 16 17  1  0
 16 18  1  0
 16 19  1  0
 19 20  2  0
 19 27  1  0
 20 21  1  0
 20 22  1  0
 22 23  1  0
 22 24  2  0
 24 25  1  0
 25 26  1  0
 25 27  2  0
 27 28  1  0
 29 30  1  0
 29 31  2  0
 31 32  1  0
M  END
>  <EnInt_ele>  (1) 
-2.953024

>  <EnInt_vdw>  (1) 
5.056437

>  <EnInt_tot>  (1) 
2.103413

>  <Charges>  (1) 
-0.57 0.78 -0.43 0.28 0.00 0.00 0.00 -0.55 0.37 0.12 -0.15 0.15 -0.15 0.15 -0.14 0.29 0.00 0.00 -0.14 -0.15 0.15 0.16 0.15 -0.62 0.16 0.15 -0.15 0.15 -0.15 0.15 -0.15 0.15

$$$$
