
     RDKit          3D

 24 24  0  0  0  0  0  0  0  0999 V2000
  -25.3970   12.8890   26.0400 O   0  0  0  0  0  0  0  0  0  0  0  0
  -25.7660   13.7020   26.4300 H   0  0  0  0  0  0  0  0  0  0  0  0
  -24.7210   12.1950   27.0820 C   0  0  0  0  0  0  0  0  0  0  0  0
  -25.4270   12.0190   27.8990 H   0  0  0  0  0  0  0  0  0  0  0  0
  -24.4000   11.2280   26.6820 H   0  0  0  0  0  0  0  0  0  0  0  0
  -23.4950   12.9830   27.5610 C   0  0  0  0  0  0  0  0  0  0  0  0
  -23.7710   13.7000   28.3440 H   0  0  0  0  0  0  0  0  0  0  0  0
  -23.1300   13.5940   26.7260 H   0  0  0  0  0  0  0  0  0  0  0  0
  -22.4010   12.0900   28.0020 N   0  0  0  0  0  0  0  0  0  0  0  0
  -22.7380   11.1840   29.0990 C   0  0  0  0  0  0  0  0  0  0  0  0
  -23.7200   11.4140   29.5310 H   0  0  0  0  0  0  0  0  0  0  0  0
  -22.0070   11.2660   29.9100 H   0  0  0  0  0  0  0  0  0  0  0  0
  -22.7740   10.1480   28.7430 H   0  0  0  0  0  0  0  0  0  0  0  0
  -21.1700   12.1620   27.3960 C   0  0  0  0  0  0  0  0  0  0  0  0
  -20.8160   11.0650   26.7110 N   0  0  0  0  0  0  0  0  0  0  0  0
  -21.4890   10.2910   26.7260 H   0  0  0  0  0  0  0  0  0  0  0  0
  -19.6370   10.9590   26.0280 C   0  0  0  0  0  0  0  0  0  0  0  0
  -19.4780   10.0380   25.5230 H   0  0  0  0  0  0  0  0  0  0  0  0
  -18.7590   12.0170   26.0340 C   0  0  0  0  0  0  0  0  0  0  0  0
  -17.8380   11.9580   25.5090 H   0  0  0  0  0  0  0  0  0  0  0  0
  -19.0780   13.1870   26.7460 C   0  0  0  0  0  0  0  0  0  0  0  0
  -18.3970   14.0040   26.7620 H   0  0  0  0  0  0  0  0  0  0  0  0
  -20.2710   13.2610   27.4250 C   0  0  0  0  0  0  0  0  0  0  0  0
  -20.5140   14.1280   27.9780 H   0  0  0  0  0  0  0  0  0  0  0  0
  1  2  1  0
  1  3  1  0
  3  4  1  0
  3  5  1  0
  3  6  1  0
  6  7  1  0
  6  8  1  0
  6  9  1  0
  9 10  1  0
  9 14  1  0
 10 11  1  0
 10 12  1  0
 10 13  1  0
 14 15  1  0
 14 23  2  0
 15 16  1  0
 15 17  1  0
 17 18  1  0
 17 19  1  0
 19 20  1  0
 19 21  2  0
 21 22  1  0
 21 23  1  0
 23 24  1  0
M  CHG  2  15   1  17  -1
M  END
>  <EnInt_ele>  (1) 
-25.01029

>  <EnInt_vdw>  (1) 
5.091456

>  <EnInt_tot>  (1) 
-19.91884

>  <Charges>  (1) 
-0.68 0.40 0.28 0.00 0.00 0.37 0.00 0.00 -0.84 0.37 0.00 0.00 0.00 0.46 -0.30 0.45 0.65 -0.02 -0.29 0.15 -0.15 0.15 -0.15 0.15

$$$$
