
     RDKit          3D

 23 23  0  0  0  0  0  0  0  0999 V2000
  -19.1020   10.9020   25.0280 S   0  0  0  0  0  0  0  0  0  0  0  0
  -17.6860   10.8130   25.3470 O   0  0  0  0  0  0  0  0  0  0  0  0
  -19.9030    9.7020   24.8760 O   0  0  0  0  0  0  0  0  0  0  0  0
  -19.2580   11.8630   23.5460 C   0  0  0  0  0  0  0  0  0  0  0  0
  -18.7500   12.8200   23.6860 H   0  0  0  0  0  0  0  0  0  0  0  0
  -20.3160   12.0150   23.3240 H   0  0  0  0  0  0  0  0  0  0  0  0
  -18.7860   11.3100   22.7320 H   0  0  0  0  0  0  0  0  0  0  0  0
  -19.8830   11.9150   26.2520 C   0  0  0  0  0  0  0  0  0  0  0  0
  -19.4290   13.2060   26.5740 C   0  0  0  0  0  0  0  0  0  0  0  0
  -18.3110   13.7250   25.9270 N   0  0  0  0  0  0  0  0  0  0  0  0
  -17.6690   13.0480   25.4900 H   0  0  0  0  0  0  0  0  0  0  0  0
  -17.9620   15.1230   25.8440 C   0  0  0  0  0  0  0  0  0  0  0  0
  -18.7600   15.7020   25.3660 H   0  0  0  0  0  0  0  0  0  0  0  0
  -17.0580   15.2380   25.2370 H   0  0  0  0  0  0  0  0  0  0  0  0
  -17.7520   15.5380   26.8340 H   0  0  0  0  0  0  0  0  0  0  0  0
  -20.1160   13.9770   27.5210 C   0  0  0  0  0  0  0  0  0  0  0  0
  -19.7990   14.9600   27.7480 H   0  0  0  0  0  0  0  0  0  0  0  0
  -21.2250   13.4540   28.1730 C   0  0  0  0  0  0  0  0  0  0  0  0
  -21.7390   14.0340   28.8950 H   0  0  0  0  0  0  0  0  0  0  0  0
  -21.6620   12.1650   27.8820 C   0  0  0  0  0  0  0  0  0  0  0  0
  -22.5050   11.7640   28.3870 H   0  0  0  0  0  0  0  0  0  0  0  0
  -20.9960   11.4060   26.9260 C   0  0  0  0  0  0  0  0  0  0  0  0
  -21.3370   10.4260   26.7050 H   0  0  0  0  0  0  0  0  0  0  0  0
  1  2  2  0
  1  3  2  0
  1  4  1  0
  1  8  1  0
  4  5  1  0
  4  6  1  0
  4  7  1  0
  8  9  2  0
  8 22  1  0
  9 10  1  0
  9 16  1  0
 10 11  1  0
 10 12  1  0
 12 13  1  0
 12 14  1  0
 12 15  1  0
 16 17  1  0
 16 18  2  0
 18 19  1  0
 18 20  1  0
 20 21  1  0
 20 22  2  0
 22 23  1  0
M  END
>  <EnInt_ele>  (1) 
16.35397

>  <EnInt_vdw>  (1) 
0.4761476

>  <EnInt_tot>  (1) 
16.83011

>  <Charges>  (1) 
1.20 -0.65 -0.65 0.10 0.00 0.00 0.00 -0.01 0.10 -0.87 0.40 0.37 0.00 0.00 0.00 -0.15 0.15 -0.15 0.15 -0.15 0.15 -0.15 0.15

$$$$
