
     RDKit          3D

 27 28  0  0  0  0  0  0  0  0999 V2000
  -18.8490   14.8170   26.0850 O   0  0  0  0  0  0  0  0  0  0  0  0
  -17.5550   15.1880   26.5400 C   0  0  0  0  0  0  0  0  0  0  0  0
  -17.5550   16.2710   26.7010 H   0  0  0  0  0  0  0  0  0  0  0  0
  -16.7920   14.9660   25.7860 H   0  0  0  0  0  0  0  0  0  0  0  0
  -17.3200   14.7120   27.4970 H   0  0  0  0  0  0  0  0  0  0  0  0
  -19.0880   13.4910   25.7930 C   0  0  0  0  0  0  0  0  0  0  0  0
  -20.1400   12.8890   26.4960 C   0  0  0  0  0  0  0  0  0  0  0  0
  -20.3990   11.5320   26.2490 C   0  0  0  0  0  0  0  0  0  0  0  0
  -21.3770   10.7240   26.8780 N   0  0  0  0  0  0  0  0  0  0  0  0
  -21.4830    9.7800   26.4870 H   0  0  0  0  0  0  0  0  0  0  0  0
  -22.2270   10.9120   27.9220 C   0  0  0  0  0  0  0  0  0  0  0  0
  -22.8940    9.9340   28.1690 O   0  0  0  0  0  0  0  0  0  0  0  0
  -22.2650   12.1600   28.7320 C   0  0  0  0  0  0  0  0  0  0  0  0
  -23.1800   12.1260   29.3370 H   0  0  0  0  0  0  0  0  0  0  0  0
  -21.4150   12.1700   29.4220 H   0  0  0  0  0  0  0  0  0  0  0  0
  -22.3120   13.3770   27.8440 C   0  0  0  0  0  0  0  0  0  0  0  0
  -22.9440   13.2130   26.9620 H   0  0  0  0  0  0  0  0  0  0  0  0
  -22.7600   14.2030   28.4090 H   0  0  0  0  0  0  0  0  0  0  0  0
  -20.9120   13.7920   27.4360 C   0  0  0  0  0  0  0  0  0  0  0  0
  -20.2980   13.9560   28.3310 H   0  0  0  0  0  0  0  0  0  0  0  0
  -21.0400   14.7700   26.9540 H   0  0  0  0  0  0  0  0  0  0  0  0
  -19.6330   10.8080   25.3330 C   0  0  0  0  0  0  0  0  0  0  0  0
  -19.8420    9.7840   25.1580 H   0  0  0  0  0  0  0  0  0  0  0  0
  -18.5980   11.4280   24.6450 C   0  0  0  0  0  0  0  0  0  0  0  0
  -18.0200   10.8770   23.9480 H   0  0  0  0  0  0  0  0  0  0  0  0
  -18.3220   12.7710   24.8700 C   0  0  0  0  0  0  0  0  0  0  0  0
  -17.5320   13.2360   24.3420 H   0  0  0  0  0  0  0  0  0  0  0  0
  1  2  1  0
  1  6  1  0
  2  3  1  0
  2  4  1  0
  2  5  1  0
  6  7  2  0
  6 26  1  0
  7  8  1  0
  7 19  1  0
  8  9  1  0
  8 22  2  0
  9 10  1  0
  9 11  1  0
 11 12  2  0
 11 13  1  0
 13 14  1  0
 13 15  1  0
 13 16  1  0
 16 17  1  0
 16 18  1  0
 16 19  1  0
 19 20  1  0
 19 21  1  0
 22 23  1  0
 22 24  1  0
 24 25  1  0
 24 26  2  0
 26 27  1  0
M  END
>  <EnInt_ele>  (1) 
1.639024

>  <EnInt_vdw>  (1) 
2.111571

>  <EnInt_tot>  (1) 
3.750595

>  <Charges>  (1) 
-0.36 0.28 0.00 0.00 0.00 0.08 -0.14 0.12 -0.55 0.37 0.57 -0.57 0.06 0.00 0.00 0.00 0.00 0.00 0.14 0.00 0.00 -0.15 0.15 -0.15 0.15 -0.15 0.15

$$$$
