
     RDKit          3D

 27 28  0  0  0  0  0  0  0  0999 V2000
  -17.4520   13.8480   23.6970 F   0  0  0  0  0  0  0  0  0  0  0  0
  -18.2000   13.4260   24.7310 C   0  0  0  0  0  0  0  0  0  0  0  0
  -18.4870   14.3080   25.7820 C   0  0  0  0  0  0  0  0  0  0  0  0
  -17.9820   15.5990   25.7160 N   0  0  0  0  0  0  0  0  0  0  0  0
  -17.3290   15.8000   24.9650 H   0  0  0  0  0  0  0  0  0  0  0  0
  -18.3110   16.6780   26.6250 C   0  0  0  0  0  0  0  0  0  0  0  0
  -19.3940   16.6900   26.8030 H   0  0  0  0  0  0  0  0  0  0  0  0
  -17.8310   16.4910   27.5940 H   0  0  0  0  0  0  0  0  0  0  0  0
  -17.9090   18.0410   26.1470 C   0  0  0  0  0  0  0  0  0  0  0  0
  -18.6940   19.1430   26.0530 C   0  0  0  0  0  0  0  0  0  0  0  0
  -20.1230   19.3830   26.3610 C   0  0  0  0  0  0  0  0  0  0  0  0
  -20.4360   18.8040   27.2350 H   0  0  0  0  0  0  0  0  0  0  0  0
  -20.7470   19.0870   25.5120 H   0  0  0  0  0  0  0  0  0  0  0  0
  -20.3130   20.4400   26.5750 H   0  0  0  0  0  0  0  0  0  0  0  0
  -17.8830   20.1120   25.5650 N   0  0  0  0  0  0  0  0  0  0  0  0
  -18.1750   21.0880   25.3700 H   0  0  0  0  0  0  0  0  0  0  0  0
  -16.6190   19.6700   25.3480 N   0  0  0  0  0  0  0  0  0  0  0  0
  -16.6460   18.4150   25.6990 C   0  0  0  0  0  0  0  0  0  0  0  0
  -15.7990   17.7790   25.6390 H   0  0  0  0  0  0  0  0  0  0  0  0
  -19.2640   13.8520   26.8510 C   0  0  0  0  0  0  0  0  0  0  0  0
  -19.4740   14.4950   27.6650 H   0  0  0  0  0  0  0  0  0  0  0  0
  -19.7440   12.5430   26.8470 C   0  0  0  0  0  0  0  0  0  0  0  0
  -20.3320   12.1970   27.6590 H   0  0  0  0  0  0  0  0  0  0  0  0
  -19.4540   11.6780   25.7890 C   0  0  0  0  0  0  0  0  0  0  0  0
  -19.8220   10.6850   25.7990 H   0  0  0  0  0  0  0  0  0  0  0  0
  -18.6730   12.1230   24.7220 C   0  0  0  0  0  0  0  0  0  0  0  0
  -18.4420   11.4770   23.9140 H   0  0  0  0  0  0  0  0  0  0  0  0
  1  2  1  0
  2  3  2  0
  2 26  1  0
  3  4  1  0
  3 20  1  0
  4  5  1  0
  4  6  1  0
  6  7  1  0
  6  8  1  0
  6  9  1  0
  9 10  2  0
  9 18  1  0
 10 11  1  0
 10 15  1  0
 11 12  1  0
 11 13  1  0
 11 14  1  0
 15 16  1  0
 15 17  1  0
 17 18  2  0
 18 19  1  0
 20 21  1  0
 20 22  2  0
 22 23  1  0
 22 24  1  0
 24 25  1  0
 24 26  2  0
 26 27  1  0
M  END
>  <EnInt_ele>  (1) 
1.298555

>  <EnInt_vdw>  (1) 
-0.2230655

>  <EnInt_tot>  (1) 
1.07549

>  <Charges>  (1) 
-0.19 0.19 0.10 -0.87 0.40 0.55 0.00 0.00 -0.18 -0.33 0.18 0.00 0.00 0.00 0.30 0.27 -0.71 0.14 0.15 -0.15 0.15 -0.15 0.15 -0.15 0.15 -0.15 0.15

$$$$
