
     RDKit          3D

 18 18  0  0  0  0  0  0  0  0999 V2000
  -22.5520   12.8610   26.4060 O   0  0  0  0  0  0  0  0  0  0  0  0
  -21.6460   12.8520   27.2270 C   0  0  0  0  0  0  0  0  0  0  0  0
  -21.7940   13.1530   28.5510 O   0  0  0  0  0  0  0  0  0  0  0  0
  -23.1350   13.4000   29.0020 C   0  0  0  0  0  0  0  0  0  0  0  0
  -23.5880   14.1000   28.2920 H   0  0  0  0  0  0  0  0  0  0  0  0
  -23.1410   13.8880   29.9840 H   0  0  0  0  0  0  0  0  0  0  0  0
  -23.9260   12.1070   29.0200 C   0  0  0  0  0  0  0  0  0  0  0  0
  -23.4910   11.3900   29.7240 H   0  0  0  0  0  0  0  0  0  0  0  0
  -23.9090   11.6320   28.0330 H   0  0  0  0  0  0  0  0  0  0  0  0
  -24.9660   12.2910   29.3050 H   0  0  0  0  0  0  0  0  0  0  0  0
  -20.2770   12.5160   26.8810 C   0  0  0  0  0  0  0  0  0  0  0  0
  -19.7620   12.3180   25.6340 C   0  0  0  0  0  0  0  0  0  0  0  0
  -20.2080   12.3590   24.6740 H   0  0  0  0  0  0  0  0  0  0  0  0
  -18.4620   12.0310   25.8140 N   0  0  0  0  0  0  0  0  0  0  0  0
  -17.7840   11.8260   25.0540 H   0  0  0  0  0  0  0  0  0  0  0  0
  -18.1150   12.0350   27.1300 N   0  0  0  0  0  0  0  0  0  0  0  0
  -19.2150   12.3280   27.7660 C   0  0  0  0  0  0  0  0  0  0  0  0
  -19.2750   12.4100   28.8230 H   0  0  0  0  0  0  0  0  0  0  0  0
  1  2  2  0
  2  3  1  0
  2 11  1  0
  3  4  1  0
  4  5  1  0
  4  6  1  0
  4  7  1  0
  7  8  1  0
  7  9  1  0
  7 10  1  0
 11 12  2  0
 11 17  1  0
 12 13  1  0
 12 14  1  0
 14 15  1  0
 14 16  1  0
 16 17  2  0
 17 18  1  0
M  END
>  <EnInt_ele>  (1) 
-11.67279

>  <EnInt_vdw>  (1) 
4.976276

>  <EnInt_tot>  (1) 
-6.696517

>  <Charges>  (1) 
-0.57 0.81 -0.43 0.28 0.00 0.00 0.00 0.00 0.00 0.00 -0.09 -0.30 0.15 0.30 0.27 -0.71 0.14 0.15

$$$$
