
     RDKit          3D

 24 24  0  0  0  0  0  0  0  0999 V2000
  -20.7050   14.1840   28.0510 O   0  0  0  0  0  0  0  0  0  0  0  0
  -21.3050   13.1560   27.7630 C   0  0  0  0  0  0  0  0  0  0  0  0
  -20.7620   12.1230   27.0640 O   0  0  0  0  0  0  0  0  0  0  0  0
  -19.4760   12.3940   26.4910 C   0  0  0  0  0  0  0  0  0  0  0  0
  -19.5380   13.2780   25.8480 H   0  0  0  0  0  0  0  0  0  0  0  0
  -18.7460   12.5670   27.2890 H   0  0  0  0  0  0  0  0  0  0  0  0
  -19.0620   11.1900   25.6680 C   0  0  0  0  0  0  0  0  0  0  0  0
  -19.7960   10.9890   24.8800 H   0  0  0  0  0  0  0  0  0  0  0  0
  -19.0160   10.2930   26.2960 H   0  0  0  0  0  0  0  0  0  0  0  0
  -18.0840   11.3500   25.2070 H   0  0  0  0  0  0  0  0  0  0  0  0
  -22.6090   12.9380   28.1260 N   0  0  0  0  0  0  0  0  0  0  0  0
  -23.3540   13.9300   28.9000 C   0  0  0  0  0  0  0  0  0  0  0  0
  -23.4920   13.5030   29.9000 H   0  0  0  0  0  0  0  0  0  0  0  0
  -22.7910   14.8630   29.0030 H   0  0  0  0  0  0  0  0  0  0  0  0
  -24.7150   14.1990   28.2580 C   0  0  0  0  0  0  0  0  0  0  0  0
  -24.6040   14.6970   27.2870 H   0  0  0  0  0  0  0  0  0  0  0  0
  -25.3130   14.8500   28.9030 H   0  0  0  0  0  0  0  0  0  0  0  0
  -25.4440   12.9760   28.0740 O   0  0  0  0  0  0  0  0  0  0  0  0
  -24.7250   12.0790   27.2140 C   0  0  0  0  0  0  0  0  0  0  0  0
  -25.3310   11.1750   27.0950 H   0  0  0  0  0  0  0  0  0  0  0  0
  -24.6150   12.5440   26.2270 H   0  0  0  0  0  0  0  0  0  0  0  0
  -23.3630   11.7230   27.8110 C   0  0  0  0  0  0  0  0  0  0  0  0
  -22.8140   11.0660   27.1300 H   0  0  0  0  0  0  0  0  0  0  0  0
  -23.4990   11.1900   28.7600 H   0  0  0  0  0  0  0  0  0  0  0  0
  1  2  2  0
  2  3  1  0
  2 11  1  0
  3  4  1  0
  4  5  1  0
  4  6  1  0
  4  7  1  0
  7  8  1  0
  7  9  1  0
  7 10  1  0
 11 12  1  0
 11 22  1  0
 12 13  1  0
 12 14  1  0
 12 15  1  0
 15 16  1  0
 15 17  1  0
 15 18  1  0
 18 19  1  0
 19 20  1  0
 19 21  1  0
 19 22  1  0
 22 23  1  0
 22 24  1  0
M  END
>  <EnInt_ele>  (1) 
-18.45929

>  <EnInt_vdw>  (1) 
9.311564

>  <EnInt_tot>  (1) 
-9.147728

>  <Charges>  (1) 
-0.57 0.78 -0.43 0.28 0.00 0.00 0.00 0.00 0.00 0.00 -0.66 0.30 0.00 0.00 0.28 0.00 0.00 -0.56 0.28 0.00 0.00 0.30 0.00 0.00

$$$$
