
     RDKit          3D

 30 31  0  0  0  0  0  0  0  0999 V2000
  -24.0840   12.5760   29.3790 N   0  0  0  0  0  0  0  0  0  0  0  0
  -23.3380   11.6980   28.4580 C   0  0  0  0  0  0  0  0  0  0  0  0
  -23.2470   10.6820   28.8520 H   0  0  0  0  0  0  0  0  0  0  0  0
  -23.9030   11.5740   27.5250 H   0  0  0  0  0  0  0  0  0  0  0  0
  -21.9810   12.2960   28.1150 C   0  0  0  0  0  0  0  0  0  0  0  0
  -21.3770   12.4860   29.0060 H   0  0  0  0  0  0  0  0  0  0  0  0
  -22.0960   13.2510   27.5900 H   0  0  0  0  0  0  0  0  0  0  0  0
  -21.4230   11.6180   27.4620 H   0  0  0  0  0  0  0  0  0  0  0  0
  -25.3750   13.0350   28.8270 C   0  0  0  0  0  0  0  0  0  0  0  0
  -25.9390   12.2000   28.3980 H   0  0  0  0  0  0  0  0  0  0  0  0
  -26.0130   13.4280   29.6280 H   0  0  0  0  0  0  0  0  0  0  0  0
  -25.1620   14.1270   27.7880 C   0  0  0  0  0  0  0  0  0  0  0  0
  -24.5630   13.7700   26.9450 H   0  0  0  0  0  0  0  0  0  0  0  0
  -24.6450   14.9880   28.2220 H   0  0  0  0  0  0  0  0  0  0  0  0
  -26.1260   14.4700   27.3980 H   0  0  0  0  0  0  0  0  0  0  0  0
  -23.6170   12.9580   30.6870 C   0  0  0  0  0  0  0  0  0  0  0  0
  -22.9510   12.0270   31.5640 N   0  0  0  0  0  0  0  0  0  0  0  0
  -22.6430   10.7250   31.3760 N   0  0  0  0  0  0  0  0  0  0  0  0
  -22.0560   10.4130   32.4900 C   0  0  0  0  0  0  0  0  0  0  0  0
  -21.6810    9.4360   32.6740 H   0  0  0  0  0  0  0  0  0  0  0  0
  -21.9510   11.3940   33.3920 N   0  0  0  0  0  0  0  0  0  0  0  0
  -22.5140   12.4120   32.8070 C   0  0  0  0  0  0  0  0  0  0  0  0
  -22.6810   13.6950   33.3000 N   0  0  0  0  0  0  0  0  0  0  0  0
  -23.2730   14.5650   32.5490 C   0  0  0  0  0  0  0  0  0  0  0  0
  -23.4660   15.9660   33.0620 C   0  0  0  0  0  0  0  0  0  0  0  0
  -23.9850   16.5920   32.3320 H   0  0  0  0  0  0  0  0  0  0  0  0
  -22.4900   16.4090   33.2780 H   0  0  0  0  0  0  0  0  0  0  0  0
  -24.0540   15.9350   33.9840 H   0  0  0  0  0  0  0  0  0  0  0  0
  -23.7750   14.2370   31.1890 C   0  0  0  0  0  0  0  0  0  0  0  0
  -24.2600   14.9800   30.6200 H   0  0  0  0  0  0  0  0  0  0  0  0
  1  2  1  0
  1  9  1  0
  1 16  1  0
  2  3  1  0
  2  4  1  0
  2  5  1  0
  5  6  1  0
  5  7  1  0
  5  8  1  0
  9 10  1  0
  9 11  1  0
  9 12  1  0
 12 13  1  0
 12 14  1  0
 12 15  1  0
 16 17  1  0
 16 29  2  0
 17 18  1  0
 17 22  1  0
 18 19  2  0
 19 20  1  0
 19 21  1  0
 21 22  2  0
 22 23  1  0
 23 24  2  0
 24 25  1  0
 24 29  1  0
 25 26  1  0
 25 27  1  0
 25 28  1  0
 29 30  1  0
M  END
>  <EnInt_ele>  (1) 
1.317457

>  <EnInt_vdw>  (1) 
0.9142423

>  <EnInt_tot>  (1) 
2.231699

>  <Charges>  (1) 
-0.84 0.37 0.00 0.00 0.00 0.00 0.00 0.00 0.37 0.00 0.00 0.00 0.00 0.00 0.00 0.07 0.60 -0.71 0.37 0.15 -0.57 0.31 -0.58 0.38 0.06 0.00 0.00 0.00 -0.14 0.15

$$$$
