
     RDKit          3D

 29 30  0  0  0  0  0  0  0  0999 V2000
  -25.8320   15.5860   26.9940 O   0  0  0  0  0  0  0  0  0  0  0  0
  -25.9600   15.2290   28.1540 C   0  0  0  0  0  0  0  0  0  0  0  0
  -26.5770   16.0290   29.0260 N   0  0  0  0  0  0  0  0  0  0  0  0
  -27.4250   15.6290   29.4440 H   0  0  0  0  0  0  0  0  0  0  0  0
  -25.9740   16.6160   29.6080 H   0  0  0  0  0  0  0  0  0  0  0  0
  -25.5160   14.0260   28.6370 N   0  0  0  0  0  0  0  0  0  0  0  0
  -25.0450   13.0110   27.6900 C   0  0  0  0  0  0  0  0  0  0  0  0
  -25.0770   13.3780   26.6590 H   0  0  0  0  0  0  0  0  0  0  0  0
  -25.7390   12.1640   27.7590 H   0  0  0  0  0  0  0  0  0  0  0  0
  -23.6270   12.5560   28.0350 C   0  0  0  0  0  0  0  0  0  0  0  0
  -22.9290   13.3950   27.9230 H   0  0  0  0  0  0  0  0  0  0  0  0
  -23.3080   11.7740   27.3400 H   0  0  0  0  0  0  0  0  0  0  0  0
  -23.5290   12.1170   29.4350 N   0  0  0  0  0  0  0  0  0  0  0  0
  -22.9820   10.8760   29.7440 C   0  0  0  0  0  0  0  0  0  0  0  0
  -22.8760   10.0770   28.8120 O   0  0  0  0  0  0  0  0  0  0  0  0
  -22.5680   10.5450   31.0890 C   0  0  0  0  0  0  0  0  0  0  0  0
  -22.0470   11.5020   31.9160 O   0  0  0  0  0  0  0  0  0  0  0  0
  -21.6970   10.9070   33.0770 C   0  0  0  0  0  0  0  0  0  0  0  0
  -21.2800   11.4780   33.8670 H   0  0  0  0  0  0  0  0  0  0  0  0
  -21.9660    9.5820   33.0080 C   0  0  0  0  0  0  0  0  0  0  0  0
  -21.7930    8.8700   33.7720 H   0  0  0  0  0  0  0  0  0  0  0  0
  -22.5120    9.3400   31.7250 C   0  0  0  0  0  0  0  0  0  0  0  0
  -22.8240    8.4130   31.3150 H   0  0  0  0  0  0  0  0  0  0  0  0
  -24.0360   13.0890   30.4140 C   0  0  0  0  0  0  0  0  0  0  0  0
  -24.1020   12.6570   31.4140 H   0  0  0  0  0  0  0  0  0  0  0  0
  -23.3190   13.9180   30.4390 H   0  0  0  0  0  0  0  0  0  0  0  0
  -25.4360   13.6130   30.0450 C   0  0  0  0  0  0  0  0  0  0  0  0
  -25.6880   14.4280   30.7260 H   0  0  0  0  0  0  0  0  0  0  0  0
  -26.1790   12.8170   30.1810 H   0  0  0  0  0  0  0  0  0  0  0  0
  1  2  2  0
  2  3  1  0
  2  6  1  0
  3  4  1  0
  3  5  1  0
  6  7  1  0
  6 27  1  0
  7  8  1  0
  7  9  1  0
  7 10  1  0
 10 11  1  0
 10 12  1  0
 10 13  1  0
 13 14  1  0
 13 24  1  0
 14 15  2  0
 14 16  1  0
 16 17  1  0
 16 22  2  0
 17 18  1  0
 18 19  1  0
 18 20  2  0
 20 21  1  0
 20 22  1  0
 22 23  1  0
 24 25  1  0
 24 26  1  0
 24 27  1  0
 27 28  1  0
 27 29  1  0
M  END
>  <EnInt_ele>  (1) 
-48.94181

>  <EnInt_vdw>  (1) 
5.427251

>  <EnInt_tot>  (1) 
-43.51456

>  <Charges>  (1) 
-0.57 0.69 -0.80 0.37 0.37 -0.66 0.30 0.00 0.00 0.30 0.00 0.00 -0.66 0.71 -0.57 0.06 -0.28 -0.01 0.15 -0.15 0.15 -0.15 0.15 0.30 0.00 0.00 0.30 0.00 0.00

$$$$
