
     RDKit          3D

 24 25  0  0  0  0  0  0  0  0999 V2000
  -17.3150   13.6090   23.4990 F   0  0  0  0  0  0  0  0  0  0  0  0
  -18.0040   13.2200   24.5810 C   0  0  0  0  0  0  0  0  0  0  0  0
  -18.0400   14.0000   25.7510 C   0  0  0  0  0  0  0  0  0  0  0  0
  -17.3530   15.1950   25.9270 N   0  0  0  0  0  0  0  0  0  0  0  0
  -16.9820   15.6410   25.0950 H   0  0  0  0  0  0  0  0  0  0  0  0
  -17.0870   15.9000   27.1660 C   0  0  0  0  0  0  0  0  0  0  0  0
  -17.9550   16.4190   27.5760 H   0  0  0  0  0  0  0  0  0  0  0  0
  -16.7950   15.1580   27.9180 H   0  0  0  0  0  0  0  0  0  0  0  0
  -15.9970   16.9000   27.0180 C   0  0  0  0  0  0  0  0  0  0  0  0
  -15.8740   17.9450   27.8680 N   0  0  0  0  0  0  0  0  0  0  0  0
  -16.5250   18.1430   28.6550 H   0  0  0  0  0  0  0  0  0  0  0  0
  -14.8100   18.7330   27.5660 N   0  0  0  0  0  0  0  0  0  0  0  0
  -14.2670   18.1700   26.5200 C   0  0  0  0  0  0  0  0  0  0  0  0
  -13.4040   18.5510   26.0360 H   0  0  0  0  0  0  0  0  0  0  0  0
  -14.9710   17.0320   26.1470 C   0  0  0  0  0  0  0  0  0  0  0  0
  -14.7440   16.3900   25.3340 H   0  0  0  0  0  0  0  0  0  0  0  0
  -18.8080   13.5550   26.8290 C   0  0  0  0  0  0  0  0  0  0  0  0
  -18.8660   14.1360   27.7130 H   0  0  0  0  0  0  0  0  0  0  0  0
  -19.4910   12.3430   26.7430 C   0  0  0  0  0  0  0  0  0  0  0  0
  -20.0700   12.0060   27.5670 H   0  0  0  0  0  0  0  0  0  0  0  0
  -19.4290   11.5700   25.5820 C   0  0  0  0  0  0  0  0  0  0  0  0
  -19.9550   10.6510   25.5280 H   0  0  0  0  0  0  0  0  0  0  0  0
  -18.6830   12.0140   24.4910 C   0  0  0  0  0  0  0  0  0  0  0  0
  -18.6370   11.4430   23.5990 H   0  0  0  0  0  0  0  0  0  0  0  0
  1  2  1  0
  2  3  2  0
  2 23  1  0
  3  4  1  0
  3 17  1  0
  4  5  1  0
  4  6  1  0
  6  7  1  0
  6  8  1  0
  6  9  1  0
  9 10  1  0
  9 15  2  0
 10 11  1  0
 10 12  1  0
 12 13  2  0
 13 14  1  0
 13 15  1  0
 15 16  1  0
 17 18  1  0
 17 19  2  0
 19 20  1  0
 19 21  1  0
 21 22  1  0
 21 23  2  0
 23 24  1  0
M  END
>  <EnInt_ele>  (1) 
1.007722

>  <EnInt_vdw>  (1) 
-0.4699111

>  <EnInt_tot>  (1) 
0.5378109

>  <Charges>  (1) 
-0.19 0.19 0.10 -0.87 0.40 0.55 0.00 0.00 -0.33 0.30 0.27 -0.71 0.14 0.15 -0.15 0.15 -0.15 0.15 -0.15 0.15 -0.15 0.15 -0.15 0.15

$$$$
