
     RDKit          3D

 26 26  0  0  0  0  0  0  0  0999 V2000
  -15.4180   17.6180   27.0700 S   0  0  0  0  0  0  0  0  0  0  0  0
  -14.2730   17.5470   26.1880 O   0  0  0  0  0  0  0  0  0  0  0  0
  -15.4060   17.0040   28.3810 O   0  0  0  0  0  0  0  0  0  0  0  0
  -16.7700   17.0170   26.2650 N   0  0  0  0  0  0  0  0  0  0  0  0
  -16.9300   17.4170   25.3370 H   0  0  0  0  0  0  0  0  0  0  0  0
  -17.1690   15.6100   26.4580 C   0  0  0  0  0  0  0  0  0  0  0  0
  -16.4330   14.9790   25.9490 H   0  0  0  0  0  0  0  0  0  0  0  0
  -17.1720   15.3450   27.5210 H   0  0  0  0  0  0  0  0  0  0  0  0
  -18.5490   15.3600   25.8440 C   0  0  0  0  0  0  0  0  0  0  0  0
  -19.3260   15.8800   26.4200 H   0  0  0  0  0  0  0  0  0  0  0  0
  -18.5780   15.7980   24.8380 H   0  0  0  0  0  0  0  0  0  0  0  0
  -18.8940   13.8900   25.7400 C   0  0  0  0  0  0  0  0  0  0  0  0
  -19.7830   13.3130   26.6540 C   0  0  0  0  0  0  0  0  0  0  0  0
  -20.2070   13.8980   27.4280 H   0  0  0  0  0  0  0  0  0  0  0  0
  -20.1160   11.9640   26.5510 C   0  0  0  0  0  0  0  0  0  0  0  0
  -20.7880   11.5160   27.2360 H   0  0  0  0  0  0  0  0  0  0  0  0
  -19.5530   11.2120   25.5300 C   0  0  0  0  0  0  0  0  0  0  0  0
  -19.8730    9.9140   25.4300 F   0  0  0  0  0  0  0  0  0  0  0  0
  -18.6730   11.7600   24.6080 C   0  0  0  0  0  0  0  0  0  0  0  0
  -18.2660   11.1620   23.8370 H   0  0  0  0  0  0  0  0  0  0  0  0
  -18.3440   13.1090   24.7190 C   0  0  0  0  0  0  0  0  0  0  0  0
  -17.6790   13.5440   24.0160 H   0  0  0  0  0  0  0  0  0  0  0  0
  -15.8560   19.3300   27.2790 C   0  0  0  0  0  0  0  0  0  0  0  0
  -15.9380   19.8040   26.3000 H   0  0  0  0  0  0  0  0  0  0  0  0
  -15.0630   19.8120   27.8550 H   0  0  0  0  0  0  0  0  0  0  0  0
  -16.7990   19.3900   27.8260 H   0  0  0  0  0  0  0  0  0  0  0  0
  1  2  2  0
  1  3  2  0
  1  4  1  0
  1 23  1  0
  4  5  1  0
  4  6  1  0
  6  7  1  0
  6  8  1  0
  6  9  1  0
  9 10  1  0
  9 11  1  0
  9 12  1  0
 12 13  2  0
 12 21  1  0
 13 14  1  0
 13 15  1  0
 15 16  1  0
 15 17  2  0
 17 18  1  0
 17 19  1  0
 19 20  1  0
 19 21  2  0
 21 22  1  0
 23 24  1  0
 23 25  1  0
 23 26  1  0
M  END
>  <EnInt_ele>  (1) 
-44.62625

>  <EnInt_vdw>  (1) 
-2.082259

>  <EnInt_tot>  (1) 
-46.70851

>  <Charges>  (1) 
1.33 -0.65 -0.65 -0.91 0.42 0.36 0.00 0.00 0.14 0.00 0.00 -0.14 -0.15 0.15 -0.15 0.15 0.19 -0.19 -0.15 0.15 -0.15 0.15 0.10 0.00 0.00 0.00

$$$$
