
     RDKit          3D

 16 17  0  0  0  0  0  0  0  0999 V2000
  -20.6360   12.5770   26.2790 Br  0  0  0  0  0  0  0  0  0  0  0  0
  -19.1400   13.4370   25.4950 C   0  0  0  0  0  0  0  0  0  0  0  0
  -18.5940   14.6540   25.9890 C   0  0  0  0  0  0  0  0  0  0  0  0
  -17.4740   15.1910   25.3110 C   0  0  0  0  0  0  0  0  0  0  0  0
  -16.9290   14.5720   24.2240 N   0  0  0  0  0  0  0  0  0  0  0  0
  -17.4400   13.4590   23.7840 C   0  0  0  0  0  0  0  0  0  0  0  0
  -16.9940   12.9990   22.9360 H   0  0  0  0  0  0  0  0  0  0  0  0
  -18.5550   12.8560   24.3980 C   0  0  0  0  0  0  0  0  0  0  0  0
  -18.9340   11.9480   24.0020 H   0  0  0  0  0  0  0  0  0  0  0  0
  -16.8850   16.3540   25.7140 N   0  0  0  0  0  0  0  0  0  0  0  0
  -17.3540   16.9980   26.7460 C   0  0  0  0  0  0  0  0  0  0  0  0
  -16.8760   17.9010   27.0360 H   0  0  0  0  0  0  0  0  0  0  0  0
  -18.4670   16.5300   27.4770 C   0  0  0  0  0  0  0  0  0  0  0  0
  -18.8100   17.0900   28.3100 H   0  0  0  0  0  0  0  0  0  0  0  0
  -19.0920   15.3660   27.1100 C   0  0  0  0  0  0  0  0  0  0  0  0
  -19.9280   15.0130   27.6580 H   0  0  0  0  0  0  0  0  0  0  0  0
  1  2  1  0
  2  3  2  0
  2  8  1  0
  3  4  1  0
  3 15  1  0
  4  5  2  0
  4 10  1  0
  5  6  1  0
  6  7  1  0
  6  8  2  0
  8  9  1  0
 10 11  2  0
 11 12  1  0
 11 13  1  0
 13 14  1  0
 13 15  2  0
 15 16  1  0
M  END
>  <EnInt_ele>  (1) 
-0.9491169

>  <EnInt_vdw>  (1) 
2.839338

>  <EnInt_tot>  (1) 
1.890221

>  <Charges>  (1) 
-0.11 0.11 0.00 0.62 -0.62 0.16 0.15 -0.15 0.15 -0.62 0.16 0.15 -0.15 0.15 -0.15 0.15

$$$$
