
     RDKit          3D

 26 28  0  0  0  0  0  0  0  0999 V2000
  -22.5040   14.1020   28.6500 O   0  0  0  0  0  0  0  0  0  0  0  0
  -22.1940   12.9210   28.5330 C   0  0  0  0  0  0  0  0  0  0  0  0
  -22.9900   11.9860   29.1450 N   0  0  0  0  0  0  0  0  0  0  0  0
  -22.8050   10.9960   28.9590 H   0  0  0  0  0  0  0  0  0  0  0  0
  -24.0830   12.3190   30.0030 C   0  0  0  0  0  0  0  0  0  0  0  0
  -24.9820   12.5940   29.4550 H   0  0  0  0  0  0  0  0  0  0  0  0
  -23.8510   13.0300   31.3090 C   0  0  0  0  0  0  0  0  0  0  0  0
  -22.8350   13.2490   31.6120 H   0  0  0  0  0  0  0  0  0  0  0  0
  -24.5760   13.7760   31.6120 H   0  0  0  0  0  0  0  0  0  0  0  0
  -24.2830   11.5930   31.3050 C   0  0  0  0  0  0  0  0  0  0  0  0
  -25.3000   11.3620   31.5970 H   0  0  0  0  0  0  0  0  0  0  0  0
  -23.5570   10.8400   31.5890 H   0  0  0  0  0  0  0  0  0  0  0  0
  -21.0410   12.4700   27.7230 C   0  0  0  0  0  0  0  0  0  0  0  0
  -21.1800   11.2900   26.9680 C   0  0  0  0  0  0  0  0  0  0  0  0
  -22.0850   10.7400   26.9850 H   0  0  0  0  0  0  0  0  0  0  0  0
  -20.1110   10.8580   26.2010 C   0  0  0  0  0  0  0  0  0  0  0  0
  -20.0830    9.7440   25.4240 O   0  0  0  0  0  0  0  0  0  0  0  0
  -18.7460    9.8180   24.8890 C   0  0  0  0  0  0  0  0  0  0  0  0
  -18.2010    8.9140   25.1800 H   0  0  0  0  0  0  0  0  0  0  0  0
  -18.8070    9.8550   23.7950 H   0  0  0  0  0  0  0  0  0  0  0  0
  -18.0080   10.9700   25.3490 O   0  0  0  0  0  0  0  0  0  0  0  0
  -18.9300   11.5560   26.1580 C   0  0  0  0  0  0  0  0  0  0  0  0
  -18.7570   12.7290   26.8790 C   0  0  0  0  0  0  0  0  0  0  0  0
  -17.8400   13.2600   26.8260 H   0  0  0  0  0  0  0  0  0  0  0  0
  -19.8190   13.1860   27.6600 C   0  0  0  0  0  0  0  0  0  0  0  0
  -19.7070   14.0910   28.2010 H   0  0  0  0  0  0  0  0  0  0  0  0
  1  2  2  0
  2  3  1  0
  2 13  1  0
  3  4  1  0
  3  5  1  0
  5  6  1  0
  5  7  1  0
  5 10  1  0
  7  8  1  0
  7  9  1  0
  7 10  1  0
 10 11  1  0
 10 12  1  0
 13 14  2  0
 13 25  1  0
 14 15  1  0
 14 16  1  0
 16 17  1  0
 16 22  2  0
 17 18  1  0
 18 19  1  0
 18 20  1  0
 18 21  1  0
 21 22  1  0
 22 23  1  0
 23 24  1  0
 23 25  2  0
 25 26  1  0
M  END
>  <EnInt_ele>  (1) 
-13.41819

>  <EnInt_vdw>  (1) 
5.655545

>  <EnInt_tot>  (1) 
-7.762641

>  <Charges>  (1) 
-0.57 0.54 -0.58 0.37 0.05 0.10 -0.20 0.10 0.10 -0.20 0.10 0.10 0.09 -0.15 0.15 0.08 -0.36 0.56 0.00 0.00 -0.36 0.08 -0.15 0.15 -0.15 0.15

$$$$
