
     RDKit          3D

 19 19  0  0  0  0  0  0  0  0999 V2000
  -19.0820    9.9710   24.8860 Br  0  0  0  0  0  0  0  0  0  0  0  0
  -18.8290   11.7720   25.3230 C   0  0  0  0  0  0  0  0  0  0  0  0
  -19.0190   12.7510   24.3970 C   0  0  0  0  0  0  0  0  0  0  0  0
  -19.3120   12.5260   23.4070 H   0  0  0  0  0  0  0  0  0  0  0  0
  -18.8230   14.1250   24.7340 C   0  0  0  0  0  0  0  0  0  0  0  0
  -18.9590   15.0600   23.9340 O   0  0  0  0  0  0  0  0  0  0  0  0
  -18.4450   14.4270   26.0460 N   0  0  0  0  0  0  0  0  0  0  0  0
  -18.2390   15.8220   26.4390 C   0  0  0  0  0  0  0  0  0  0  0  0
  -18.6980   16.4810   25.6920 H   0  0  0  0  0  0  0  0  0  0  0  0
  -18.7690   16.0290   27.3780 H   0  0  0  0  0  0  0  0  0  0  0  0
  -16.7580   16.1710   26.5780 C   0  0  0  0  0  0  0  0  0  0  0  0
  -16.2070   15.9710   25.6530 H   0  0  0  0  0  0  0  0  0  0  0  0
  -16.2980   15.5760   27.3730 H   0  0  0  0  0  0  0  0  0  0  0  0
  -16.6030   17.5450   26.9110 O   0  0  0  0  0  0  0  0  0  0  0  0
  -15.6480   17.7170   26.9960 H   0  0  0  0  0  0  0  0  0  0  0  0
  -18.2460   13.4250   26.9900 C   0  0  0  0  0  0  0  0  0  0  0  0
  -17.9510   13.7510   27.9570 H   0  0  0  0  0  0  0  0  0  0  0  0
  -18.4330   12.1190   26.6460 C   0  0  0  0  0  0  0  0  0  0  0  0
  -18.2850   11.3480   27.3580 H   0  0  0  0  0  0  0  0  0  0  0  0
  1  2  1  0
  2  3  2  0
  2 18  1  0
  3  4  1  0
  3  5  1  0
  5  6  2  0
  5  7  1  0
  7  8  1  0
  7 16  1  0
  8  9  1  0
  8 10  1  0
  8 11  1  0
 11 12  1  0
 11 13  1  0
 11 14  1  0
 14 15  1  0
 16 17  1  0
 16 18  2  0
 18 19  1  0
M  END
>  <EnInt_ele>  (1) 
-2.244224

>  <EnInt_vdw>  (1) 
29.32826

>  <EnInt_tot>  (1) 
27.08403

>  <Charges>  (1) 
-0.11 0.11 -0.14 0.15 0.62 -0.57 -0.47 0.30 0.00 0.00 0.28 0.00 0.00 -0.68 0.40 -0.04 0.15 -0.15 0.15

$$$$
