
     RDKit          3D

 29 30  0  0  1  0  0  0  0  0999 V2000
  -14.8220   18.2660   25.7310 C   0  0  0  0  0  0  0  0  0  0  0  0
  -14.5480   17.3170   25.2590 H   0  0  0  0  0  0  0  0  0  0  0  0
  -13.9020   18.8100   25.9770 H   0  0  0  0  0  0  0  0  0  0  0  0
  -15.3590   18.8750   24.9950 H   0  0  0  0  0  0  0  0  0  0  0  0
  -15.6650   18.0470   26.9830 C   0  0  0  0  0  0  0  0  0  0  0  0
  -15.9630   19.3190   27.5600 O   0  0  0  0  0  0  0  0  0  0  0  0
  -16.4690   19.1560   28.3740 H   0  0  0  0  0  0  0  0  0  0  0  0
  -16.9170   17.2860   26.6880 C   0  0  0  0  0  0  0  0  0  0  0  0
  -18.2000   17.8060   26.5630 C   0  0  0  0  0  0  0  0  0  0  0  0
  -18.4600   18.8290   26.6730 H   0  0  0  0  0  0  0  0  0  0  0  0
  -19.0670   16.8690   26.2890 N   0  0  0  0  0  0  0  0  0  0  0  0
  -18.3400   15.7170   26.2390 N   0  0  0  0  0  0  0  0  0  0  0  0
  -18.9690   14.4500   25.9600 C   0  0  0  0  0  0  0  0  0  0  0  0
  -20.0530   14.6270   25.9170 H   0  0  0  0  0  0  0  0  0  0  0  0
  -18.5250   13.7940   24.6530 C   0  0  0  0  0  0  0  0  0  0  0  0
  -18.9600   14.2810   23.7740 H   0  0  0  0  0  0  0  0  0  0  0  0
  -17.4350   13.8240   24.5390 H   0  0  0  0  0  0  0  0  0  0  0  0
  -18.9830   12.3450   24.7920 C   0  0  0  0  0  0  0  0  0  0  0  0
  -19.9610   12.2080   24.3160 H   0  0  0  0  0  0  0  0  0  0  0  0
  -18.2830   11.6590   24.3030 H   0  0  0  0  0  0  0  0  0  0  0  0
  -19.0940   12.0720   26.2920 C   0  0  0  0  0  0  0  0  0  0  0  0
  -18.4620   11.2320   26.6000 H   0  0  0  0  0  0  0  0  0  0  0  0
  -20.1300   11.8120   26.5450 H   0  0  0  0  0  0  0  0  0  0  0  0
  -18.6850   13.3620   26.9930 C   0  0  0  0  0  0  0  0  0  0  0  0
  -17.6190   13.3210   27.2490 H   0  0  0  0  0  0  0  0  0  0  0  0
  -19.2400   13.5180   27.9250 H   0  0  0  0  0  0  0  0  0  0  0  0
  -17.0300   15.9540   26.4780 C   0  0  0  0  0  0  0  0  0  0  0  0
  -16.3070   15.1800   26.4740 H   0  0  0  0  0  0  0  0  0  0  0  0
  -15.0750   17.4920   27.7230 H   0  0  0  0  0  0  0  0  0  0  0  0
  1  2  1  0
  1  3  1  0
  1  4  1  0
  1  5  1  0
  5  6  1  0
  5  8  1  0
  5 29  1  0
  6  7  1  0
  8  9  1  0
  8 27  2  0
  9 10  1  0
  9 11  2  0
 11 12  1  0
 12 13  1  0
 12 27  1  0
 13 14  1  0
 13 15  1  0
 13 24  1  0
 15 16  1  0
 15 17  1  0
 15 18  1  0
 18 19  1  0
 18 20  1  0
 18 21  1  0
 21 22  1  0
 21 23  1  0
 21 24  1  0
 24 25  1  0
 24 26  1  0
 27 28  1  0
M  END
>  <EnInt_ele>  (1) 
-2.273737e-013

>  <EnInt_vdw>  (1) 
-1.032597

>  <EnInt_tot>  (1) 
-1.032597

>  <Charges>  (1) 
0.00 0.00 0.00 0.00 0.46 -0.68 0.40 -0.18 0.14 0.15 -0.71 0.31 0.26 0.00 0.00 0.00 0.00 0.00 0.00 0.00 0.00 0.00 0.00 0.00 0.00 0.00 -0.30 0.15 0.00

$$$$
