
     RDKit          3D

 27 27  0  0  0  0  0  0  0  0999 V2000
  -24.1780   15.2900   32.4200 S   0  0  0  0  0  0  0  0  0  0  0  0
  -24.5390   16.6370   32.0340 O   0  0  0  0  0  0  0  0  0  0  0  0
  -25.0000   14.5040   33.3140 O   0  0  0  0  0  0  0  0  0  0  0  0
  -22.6390   15.3680   33.1040 N   0  0  0  0  0  0  0  0  0  0  0  0
  -22.2770   14.4440   33.3500 H   0  0  0  0  0  0  0  0  0  0  0  0
  -22.5890   16.0470   33.8670 H   0  0  0  0  0  0  0  0  0  0  0  0
  -23.8710   14.3510   30.9670 C   0  0  0  0  0  0  0  0  0  0  0  0
  -23.2180   13.1170   31.0420 C   0  0  0  0  0  0  0  0  0  0  0  0
  -22.9340   12.7310   31.9900 H   0  0  0  0  0  0  0  0  0  0  0  0
  -22.9290   12.3970   29.8880 C   0  0  0  0  0  0  0  0  0  0  0  0
  -22.4290   11.4640   29.9620 H   0  0  0  0  0  0  0  0  0  0  0  0
  -23.2830   12.9000   28.6380 C   0  0  0  0  0  0  0  0  0  0  0  0
  -22.9080   12.1560   27.3870 C   0  0  0  0  0  0  0  0  0  0  0  0
  -23.2490   12.6950   26.4940 H   0  0  0  0  0  0  0  0  0  0  0  0
  -23.3810   11.1670   27.3620 H   0  0  0  0  0  0  0  0  0  0  0  0
  -21.4730   11.9850   27.3100 N   0  0  0  0  0  0  0  0  0  0  0  0
  -21.1260   11.0800   27.0420 H   0  0  0  0  0  0  0  0  0  0  0  0
  -20.6240   12.9680   27.5780 C   0  0  0  0  0  0  0  0  0  0  0  0
  -21.0040   14.0820   27.9050 O   0  0  0  0  0  0  0  0  0  0  0  0
  -19.1720   12.6150   27.4360 C   0  0  0  0  0  0  0  0  0  0  0  0
  -18.9460   11.7140   28.0140 H   0  0  0  0  0  0  0  0  0  0  0  0
  -18.9380   12.4390   26.3820 H   0  0  0  0  0  0  0  0  0  0  0  0
  -18.5540   13.4370   27.8090 H   0  0  0  0  0  0  0  0  0  0  0  0
  -23.9240   14.1340   28.5550 C   0  0  0  0  0  0  0  0  0  0  0  0
  -24.1860   14.5330   27.6070 H   0  0  0  0  0  0  0  0  0  0  0  0
  -24.2120   14.8540   29.7100 C   0  0  0  0  0  0  0  0  0  0  0  0
  -24.6900   15.8000   29.6360 H   0  0  0  0  0  0  0  0  0  0  0  0
  1  2  2  0
  1  3  2  0
  1  4  1  0
  1  7  1  0
  4  5  1  0
  4  6  1  0
  7  8  2  0
  7 26  1  0
  8  9  1  0
  8 10  1  0
 10 11  1  0
 10 12  2  0
 12 13  1  0
 12 24  1  0
 13 14  1  0
 13 15  1  0
 13 16  1  0
 16 17  1  0
 16 18  1  0
 18 19  2  0
 18 20  1  0
 20 21  1  0
 20 22  1  0
 20 23  1  0
 24 25  1  0
 24 26  2  0
 26 27  1  0
M  END
>  <EnInt_ele>  (1) 
6.80769

>  <EnInt_vdw>  (1) 
-0.1979821

>  <EnInt_tot>  (1) 
6.609708

>  <Charges>  (1) 
1.45 -0.65 -0.65 -0.98 0.42 0.42 -0.01 -0.15 0.15 -0.15 0.15 -0.14 0.44 0.00 0.00 -0.73 0.37 0.57 -0.57 0.06 0.00 0.00 0.00 -0.15 0.15 -0.15 0.15

$$$$
