
     RDKit          3D

 16 17  0  0  0  0  0  0  0  0999 V2000
  -18.4300   11.2070   24.3000 Br  0  0  0  0  0  0  0  0  0  0  0  0
  -18.8300   12.7600   25.3100 C   0  0  0  0  0  0  0  0  0  0  0  0
  -19.8100   12.7880   26.3400 C   0  0  0  0  0  0  0  0  0  0  0  0
  -20.0120   14.0140   27.0180 C   0  0  0  0  0  0  0  0  0  0  0  0
  -19.2990   15.1330   26.7040 N   0  0  0  0  0  0  0  0  0  0  0  0
  -18.4050   15.0920   25.7580 C   0  0  0  0  0  0  0  0  0  0  0  0
  -17.8650   15.9790   25.5350 H   0  0  0  0  0  0  0  0  0  0  0  0
  -18.1410   13.9140   25.0320 C   0  0  0  0  0  0  0  0  0  0  0  0
  -17.4040   13.9320   24.2710 H   0  0  0  0  0  0  0  0  0  0  0  0
  -20.9300   14.1330   28.0200 N   0  0  0  0  0  0  0  0  0  0  0  0
  -21.6470   13.1020   28.3730 C   0  0  0  0  0  0  0  0  0  0  0  0
  -22.3540   13.2250   29.1560 H   0  0  0  0  0  0  0  0  0  0  0  0
  -21.5070   11.8450   27.7480 C   0  0  0  0  0  0  0  0  0  0  0  0
  -22.1130   11.0380   28.0720 H   0  0  0  0  0  0  0  0  0  0  0  0
  -20.5970   11.6760   26.7360 C   0  0  0  0  0  0  0  0  0  0  0  0
  -20.4910   10.7330   26.2650 H   0  0  0  0  0  0  0  0  0  0  0  0
  1  2  1  0
  2  3  2  0
  2  8  1  0
  3  4  1  0
  3 15  1  0
  4  5  2  0
  4 10  1  0
  5  6  1  0
  6  7  1  0
  6  8  2  0
  8  9  1  0
 10 11  2  0
 11 12  1  0
 11 13  1  0
 13 14  1  0
 13 15  2  0
 15 16  1  0
M  END
>  <EnInt_ele>  (1) 
-1.759101

>  <EnInt_vdw>  (1) 
1.235509

>  <EnInt_tot>  (1) 
-0.5235922

>  <Charges>  (1) 
-0.11 0.11 0.00 0.62 -0.62 0.16 0.15 -0.15 0.15 -0.62 0.16 0.15 -0.15 0.15 -0.15 0.15

$$$$
