
     RDKit          3D

 23 24  0  0  0  0  0  0  0  0999 V2000
  -22.1260   10.5710   27.1000 O   0  0  0  0  0  0  0  0  0  0  0  0
  -21.7090   11.5590   27.6970 C   0  0  0  0  0  0  0  0  0  0  0  0
  -20.5320   12.1230   27.2330 N   0  0  0  0  0  0  0  0  0  0  0  0
  -19.7730   13.2240   27.8160 C   0  0  0  0  0  0  0  0  0  0  0  0
  -20.3920   14.1110   27.9560 H   0  0  0  0  0  0  0  0  0  0  0  0
  -19.3890   12.8930   28.7860 H   0  0  0  0  0  0  0  0  0  0  0  0
  -18.6480   13.4950   26.8240 C   0  0  0  0  0  0  0  0  0  0  0  0
  -18.9760   14.2300   26.0790 H   0  0  0  0  0  0  0  0  0  0  0  0
  -17.7450   13.8770   27.3060 H   0  0  0  0  0  0  0  0  0  0  0  0
  -18.4420   12.1460   26.1530 C   0  0  0  0  0  0  0  0  0  0  0  0
  -17.8360   11.4990   26.8000 H   0  0  0  0  0  0  0  0  0  0  0  0
  -17.9480   12.2210   25.1800 H   0  0  0  0  0  0  0  0  0  0  0  0
  -19.8570   11.6020   26.0520 C   0  0  0  0  0  0  0  0  0  0  0  0
  -19.8860   10.5100   26.0200 H   0  0  0  0  0  0  0  0  0  0  0  0
  -20.3770   11.9970   25.1700 H   0  0  0  0  0  0  0  0  0  0  0  0
  -22.3680   12.0880   28.8760 C   0  0  0  0  0  0  0  0  0  0  0  0
  -22.7870   11.3180   29.9200 C   0  0  0  0  0  0  0  0  0  0  0  0
  -22.7150   10.2750   30.0930 H   0  0  0  0  0  0  0  0  0  0  0  0
  -23.3730   12.1580   30.7880 N   0  0  0  0  0  0  0  0  0  0  0  0
  -23.8000   11.8780   31.6930 H   0  0  0  0  0  0  0  0  0  0  0  0
  -23.3580   13.4460   30.3460 N   0  0  0  0  0  0  0  0  0  0  0  0
  -22.7590   13.3920   29.1900 C   0  0  0  0  0  0  0  0  0  0  0  0
  -22.6110   14.2430   28.5760 H   0  0  0  0  0  0  0  0  0  0  0  0
  1  2  2  0
  2  3  1  0
  2 16  1  0
  3  4  1  0
  3 13  1  0
  4  5  1  0
  4  6  1  0
  4  7  1  0
  7  8  1  0
  7  9  1  0
  7 10  1  0
 10 11  1  0
 10 12  1  0
 10 13  1  0
 13 14  1  0
 13 15  1  0
 16 17  2  0
 16 22  1  0
 17 18  1  0
 17 19  1  0
 19 20  1  0
 19 21  1  0
 21 22  2  0
 22 23  1  0
M  END
>  <EnInt_ele>  (1) 
-7.494945

>  <EnInt_vdw>  (1) 
6.681463

>  <EnInt_tot>  (1) 
-0.8134819

>  <Charges>  (1) 
-0.57 0.72 -0.66 0.30 0.00 0.00 0.00 0.00 0.00 0.00 0.00 0.00 0.30 0.00 0.00 -0.09 -0.30 0.15 0.30 0.27 -0.71 0.14 0.15

$$$$
