
     RDKit          3D

 20 20  0  0  0  0  0  0  0  0999 V2000
  -18.0980   12.1960   23.9480 S   0  0  0  0  0  0  0  0  0  0  0  0
  -17.1020   11.2620   24.4190 O   0  0  0  0  0  0  0  0  0  0  0  0
  -19.0450   11.8520   22.9090 O   0  0  0  0  0  0  0  0  0  0  0  0
  -17.2780   13.5770   23.4340 N   0  0  0  0  0  0  0  0  0  0  0  0
  -16.6070   13.9100   24.1300 H   0  0  0  0  0  0  0  0  0  0  0  0
  -16.8830   13.4670   22.4960 H   0  0  0  0  0  0  0  0  0  0  0  0
  -18.9910   12.8130   25.3350 C   0  0  0  0  0  0  0  0  0  0  0  0
  -18.7120   14.0840   25.8470 C   0  0  0  0  0  0  0  0  0  0  0  0
  -17.9460   14.6810   25.4230 H   0  0  0  0  0  0  0  0  0  0  0  0
  -19.4560   14.5560   26.9170 C   0  0  0  0  0  0  0  0  0  0  0  0
  -19.1810   15.7740   27.4060 F   0  0  0  0  0  0  0  0  0  0  0  0
  -20.4770   13.8180   27.4970 C   0  0  0  0  0  0  0  0  0  0  0  0
  -21.0240   14.2180   28.3120 H   0  0  0  0  0  0  0  0  0  0  0  0
  -20.7700   12.5560   26.9860 C   0  0  0  0  0  0  0  0  0  0  0  0
  -21.9000   11.7500   27.5570 C   0  0  0  0  0  0  0  0  0  0  0  0
  -22.0420   11.9730   28.6200 H   0  0  0  0  0  0  0  0  0  0  0  0
  -21.6950   10.6780   27.4760 H   0  0  0  0  0  0  0  0  0  0  0  0
  -22.8270   11.9740   27.0220 H   0  0  0  0  0  0  0  0  0  0  0  0
  -20.0300   12.0650   25.9060 C   0  0  0  0  0  0  0  0  0  0  0  0
  -20.2580   11.1100   25.5020 H   0  0  0  0  0  0  0  0  0  0  0  0
  1  2  2  0
  1  3  2  0
  1  4  1  0
  1  7  1  0
  4  5  1  0
  4  6  1  0
  7  8  2  0
  7 19  1  0
  8  9  1  0
  8 10  1  0
 10 11  1  0
 10 12  2  0
 12 13  1  0
 12 14  1  0
 14 15  1  0
 14 19  2  0
 15 16  1  0
 15 17  1  0
 15 18  1  0
 19 20  1  0
M  END
>  <EnInt_ele>  (1) 
17.27492

>  <EnInt_vdw>  (1) 
-2.264471

>  <EnInt_tot>  (1) 
15.01045

>  <Charges>  (1) 
1.45 -0.65 -0.65 -0.98 0.42 0.42 -0.01 -0.15 0.15 0.19 -0.19 -0.15 0.15 -0.14 0.14 0.00 0.00 0.00 -0.15 0.15

$$$$
