
     RDKit          3D

 19 19  0  0  0  0  0  0  0  0999 V2000
  -18.4060   12.2760   24.6120 Br  0  0  0  0  0  0  0  0  0  0  0  0
  -19.5280   12.6090   26.0650 C   0  0  0  0  0  0  0  0  0  0  0  0
  -20.3880   11.7580   26.6640 C   0  0  0  0  0  0  0  0  0  0  0  0
  -20.6340   10.7470   26.4650 H   0  0  0  0  0  0  0  0  0  0  0  0
  -20.9700   12.4620   27.6600 N   0  0  0  0  0  0  0  0  0  0  0  0
  -21.9630   12.0110   28.6140 C   0  0  0  0  0  0  0  0  0  0  0  0
  -22.1830   10.9630   28.3820 H   0  0  0  0  0  0  0  0  0  0  0  0
  -21.5000   12.0590   29.6050 H   0  0  0  0  0  0  0  0  0  0  0  0
  -23.2210   12.8640   28.5680 C   0  0  0  0  0  0  0  0  0  0  0  0
  -22.9960   13.9180   28.7730 H   0  0  0  0  0  0  0  0  0  0  0  0
  -23.9310   12.5010   29.3190 H   0  0  0  0  0  0  0  0  0  0  0  0
  -23.8260   12.7380   27.2780 O   0  0  0  0  0  0  0  0  0  0  0  0
  -25.0420   13.4680   27.1930 C   0  0  0  0  0  0  0  0  0  0  0  0
  -25.4620   13.3230   26.1940 H   0  0  0  0  0  0  0  0  0  0  0  0
  -24.8580   14.5360   27.3430 H   0  0  0  0  0  0  0  0  0  0  0  0
  -25.7610   13.1020   27.9320 H   0  0  0  0  0  0  0  0  0  0  0  0
  -20.5100   13.7440   27.7100 N   0  0  0  0  0  0  0  0  0  0  0  0
  -19.6350   13.8200   26.7400 C   0  0  0  0  0  0  0  0  0  0  0  0
  -19.0900   14.7000   26.5130 H   0  0  0  0  0  0  0  0  0  0  0  0
  1  2  1  0
  2  3  2  0
  2 18  1  0
  3  4  1  0
  3  5  1  0
  5  6  1  0
  5 17  1  0
  6  7  1  0
  6  8  1  0
  6  9  1  0
  9 10  1  0
  9 11  1  0
  9 12  1  0
 12 13  1  0
 13 14  1  0
 13 15  1  0
 13 16  1  0
 17 18  2  0
 18 19  1  0
M  END
>  <EnInt_ele>  (1) 
-0.1699267

>  <EnInt_vdw>  (1) 
-2.763138

>  <EnInt_tot>  (1) 
-2.933064

>  <Charges>  (1) 
-0.06 0.06 -0.30 0.15 0.31 0.26 0.00 0.00 0.28 0.00 0.00 -0.56 0.28 0.00 0.00 0.00 -0.71 0.14 0.15

$$$$
