
     RDKit          3D

 22 22  0  0  0  0  0  0  0  0999 V2000
  -17.5930   10.9250   24.4390 O   0  0  0  0  0  0  0  0  0  0  0  0
  -17.3530   11.8400   24.2120 H   0  0  0  0  0  0  0  0  0  0  0  0
  -18.9750   10.9310   24.7850 C   0  0  0  0  0  0  0  0  0  0  0  0
  -19.5520   11.3000   23.9300 H   0  0  0  0  0  0  0  0  0  0  0  0
  -19.2690    9.8970   24.9900 H   0  0  0  0  0  0  0  0  0  0  0  0
  -19.2000   11.7890   26.0290 C   0  0  0  0  0  0  0  0  0  0  0  0
  -20.2680   11.7770   26.2770 H   0  0  0  0  0  0  0  0  0  0  0  0
  -18.6610   11.3600   26.8830 H   0  0  0  0  0  0  0  0  0  0  0  0
  -18.7600   13.2070   25.8440 C   0  0  0  0  0  0  0  0  0  0  0  0
  -18.1130   13.9850   26.7410 C   0  0  0  0  0  0  0  0  0  0  0  0
  -17.7860   13.7960   27.7290 H   0  0  0  0  0  0  0  0  0  0  0  0
  -17.9220   15.1760   26.1310 N   0  0  0  0  0  0  0  0  0  0  0  0
  -17.2700   16.3530   26.6610 C   0  0  0  0  0  0  0  0  0  0  0  0
  -16.7640   16.0660   27.5890 H   0  0  0  0  0  0  0  0  0  0  0  0
  -16.5040   16.6620   25.9420 H   0  0  0  0  0  0  0  0  0  0  0  0
  -18.2510   17.4820   26.9230 C   0  0  0  0  0  0  0  0  0  0  0  0
  -19.0190   17.1780   27.6450 H   0  0  0  0  0  0  0  0  0  0  0  0
  -18.7620   17.7850   26.0030 H   0  0  0  0  0  0  0  0  0  0  0  0
  -17.7280   18.3540   27.3270 H   0  0  0  0  0  0  0  0  0  0  0  0
  -18.4310   15.1860   24.8740 N   0  0  0  0  0  0  0  0  0  0  0  0
  -18.9330   13.9920   24.7070 C   0  0  0  0  0  0  0  0  0  0  0  0
  -19.4130   13.6780   23.8130 H   0  0  0  0  0  0  0  0  0  0  0  0
  1  2  1  0
  1  3  1  0
  3  4  1  0
  3  5  1  0
  3  6  1  0
  6  7  1  0
  6  8  1  0
  6  9  1  0
  9 10  2  0
  9 21  1  0
 10 11  1  0
 10 12  1  0
 12 13  1  0
 12 20  1  0
 13 14  1  0
 13 15  1  0
 13 16  1  0
 16 17  1  0
 16 18  1  0
 16 19  1  0
 20 21  2  0
 21 22  1  0
M  END
>  <EnInt_ele>  (1) 
-10.11827

>  <EnInt_vdw>  (1) 
1.438018

>  <EnInt_tot>  (1) 
-8.68025

>  <Charges>  (1) 
-0.68 0.40 0.28 0.00 0.00 0.18 0.00 0.00 -0.18 -0.30 0.15 0.31 0.26 0.00 0.00 0.00 0.00 0.00 0.00 -0.71 0.14 0.15

$$$$
