
     RDKit          3D

 30 31  0  0  0  0  0  0  0  0999 V2000
  -23.2470   12.9570   28.9560 N   0  0  0  0  0  0  0  0  0  0  0  0
  -22.3170   12.1760   28.1170 C   0  0  0  0  0  0  0  0  0  0  0  0
  -22.0080   12.7350   27.2290 H   0  0  0  0  0  0  0  0  0  0  0  0
  -21.3810   12.0050   28.6630 H   0  0  0  0  0  0  0  0  0  0  0  0
  -22.9120   10.8240   27.7580 C   0  0  0  0  0  0  0  0  0  0  0  0
  -23.8730   10.9190   27.2440 H   0  0  0  0  0  0  0  0  0  0  0  0
  -23.0820   10.2200   28.6560 H   0  0  0  0  0  0  0  0  0  0  0  0
  -22.2290   10.2700   27.1050 H   0  0  0  0  0  0  0  0  0  0  0  0
  -24.2820   13.6620   28.1730 C   0  0  0  0  0  0  0  0  0  0  0  0
  -24.1450   14.7480   28.2250 H   0  0  0  0  0  0  0  0  0  0  0  0
  -24.1880   13.4140   27.1080 H   0  0  0  0  0  0  0  0  0  0  0  0
  -25.6760   13.2750   28.6460 C   0  0  0  0  0  0  0  0  0  0  0  0
  -25.8340   13.5410   29.6950 H   0  0  0  0  0  0  0  0  0  0  0  0
  -25.8410   12.1980   28.5470 H   0  0  0  0  0  0  0  0  0  0  0  0
  -26.4340   13.7910   28.0480 H   0  0  0  0  0  0  0  0  0  0  0  0
  -23.1690   13.0350   30.3920 C   0  0  0  0  0  0  0  0  0  0  0  0
  -23.6250   14.1930   31.1210 N   0  0  0  0  0  0  0  0  0  0  0  0
  -24.1740   15.3420   30.6710 N   0  0  0  0  0  0  0  0  0  0  0  0
  -24.3800   16.0030   31.7680 C   0  0  0  0  0  0  0  0  0  0  0  0
  -24.8120   16.9730   31.7690 H   0  0  0  0  0  0  0  0  0  0  0  0
  -24.0160   15.3880   32.8980 N   0  0  0  0  0  0  0  0  0  0  0  0
  -23.5410   14.2470   32.4900 C   0  0  0  0  0  0  0  0  0  0  0  0
  -23.0210   13.2160   33.2540 N   0  0  0  0  0  0  0  0  0  0  0  0
  -22.5990   12.1570   32.6440 C   0  0  0  0  0  0  0  0  0  0  0  0
  -22.0300   11.0220   33.4510 C   0  0  0  0  0  0  0  0  0  0  0  0
  -21.7060   10.1980   32.8120 H   0  0  0  0  0  0  0  0  0  0  0  0
  -22.7920   10.6550   34.1440 H   0  0  0  0  0  0  0  0  0  0  0  0
  -21.1720   11.3840   34.0250 H   0  0  0  0  0  0  0  0  0  0  0  0
  -22.6550   12.0110   31.1650 C   0  0  0  0  0  0  0  0  0  0  0  0
  -22.2890   11.1310   30.7150 H   0  0  0  0  0  0  0  0  0  0  0  0
  1  2  1  0
  1  9  1  0
  1 16  1  0
  2  3  1  0
  2  4  1  0
  2  5  1  0
  5  6  1  0
  5  7  1  0
  5  8  1  0
  9 10  1  0
  9 11  1  0
  9 12  1  0
 12 13  1  0
 12 14  1  0
 12 15  1  0
 16 17  1  0
 16 29  2  0
 17 18  1  0
 17 22  1  0
 18 19  2  0
 19 20  1  0
 19 21  1  0
 21 22  2  0
 22 23  1  0
 23 24  2  0
 24 25  1  0
 24 29  1  0
 25 26  1  0
 25 27  1  0
 25 28  1  0
 29 30  1  0
M  END
>  <EnInt_ele>  (1) 
2.210534

>  <EnInt_vdw>  (1) 
0.8261247

>  <EnInt_tot>  (1) 
3.036659

>  <Charges>  (1) 
-0.84 0.37 0.00 0.00 0.00 0.00 0.00 0.00 0.37 0.00 0.00 0.00 0.00 0.00 0.00 0.07 0.60 -0.71 0.37 0.15 -0.57 0.31 -0.58 0.38 0.06 0.00 0.00 0.00 -0.14 0.15

$$$$
