
     RDKit          3D

 19 19  0  0  0  0  0  0  0  0999 V2000
  -18.9430   12.3680   28.2810 O   0  0  0  0  0  0  0  0  0  0  0  0
  -19.5140   12.1000   27.2340 C   0  0  0  0  0  0  0  0  0  0  0  0
  -20.8230   12.2470   27.0850 N   0  0  0  0  0  0  0  0  0  0  0  0
  -21.2630   12.0060   26.2130 H   0  0  0  0  0  0  0  0  0  0  0  0
  -21.6670   12.7430   28.1510 C   0  0  0  0  0  0  0  0  0  0  0  0
  -21.4120   12.2100   29.0730 H   0  0  0  0  0  0  0  0  0  0  0  0
  -21.4520   13.8060   28.3050 H   0  0  0  0  0  0  0  0  0  0  0  0
  -23.0900   12.5280   27.7800 C   0  0  0  0  0  0  0  0  0  0  0  0
  -23.6620   11.3720   27.3670 C   0  0  0  0  0  0  0  0  0  0  0  0
  -23.2620   10.4020   27.2160 H   0  0  0  0  0  0  0  0  0  0  0  0
  -24.9630   11.6630   27.1520 N   0  0  0  0  0  0  0  0  0  0  0  0
  -25.6820   10.9890   26.8300 H   0  0  0  0  0  0  0  0  0  0  0  0
  -25.2390   12.9680   27.4060 N   0  0  0  0  0  0  0  0  0  0  0  0
  -24.1020   13.4820   27.7870 C   0  0  0  0  0  0  0  0  0  0  0  0
  -23.9880   14.5020   28.0580 H   0  0  0  0  0  0  0  0  0  0  0  0
  -18.7810   11.5530   26.0400 C   0  0  0  0  0  0  0  0  0  0  0  0
  -19.3080   11.7870   25.1110 H   0  0  0  0  0  0  0  0  0  0  0  0
  -18.6930   10.4690   26.1400 H   0  0  0  0  0  0  0  0  0  0  0  0
  -17.7830   11.9980   25.9930 H   0  0  0  0  0  0  0  0  0  0  0  0
  1  2  2  0
  2  3  1  0
  2 16  1  0
  3  4  1  0
  3  5  1  0
  5  6  1  0
  5  7  1  0
  5  8  1  0
  8  9  2  0
  8 14  1  0
  9 10  1  0
  9 11  1  0
 11 12  1  0
 11 13  1  0
 13 14  2  0
 14 15  1  0
 16 17  1  0
 16 18  1  0
 16 19  1  0
M  END
>  <EnInt_ele>  (1) 
-9.119499

>  <EnInt_vdw>  (1) 
1.629513

>  <EnInt_tot>  (1) 
-7.489985

>  <Charges>  (1) 
-0.57 0.57 -0.73 0.37 0.48 0.00 0.00 -0.18 -0.30 0.15 0.30 0.27 -0.71 0.14 0.15 0.06 0.00 0.00 0.00

$$$$
