
     RDKit          3D

 16 17  0  0  0  0  0  0  0  0999 V2000
  -18.4270   11.2170   24.3090 Br  0  0  0  0  0  0  0  0  0  0  0  0
  -18.8320   12.7670   25.3220 C   0  0  0  0  0  0  0  0  0  0  0  0
  -19.8150   12.7910   26.3500 C   0  0  0  0  0  0  0  0  0  0  0  0
  -20.0200   14.0150   27.0310 C   0  0  0  0  0  0  0  0  0  0  0  0
  -19.3060   15.1360   26.7220 N   0  0  0  0  0  0  0  0  0  0  0  0
  -18.4100   15.0970   25.7790 C   0  0  0  0  0  0  0  0  0  0  0  0
  -17.8690   15.9860   25.5610 H   0  0  0  0  0  0  0  0  0  0  0  0
  -18.1430   13.9220   25.0500 C   0  0  0  0  0  0  0  0  0  0  0  0
  -17.4030   13.9420   24.2920 H   0  0  0  0  0  0  0  0  0  0  0  0
  -20.9420   14.1300   28.0300 N   0  0  0  0  0  0  0  0  0  0  0  0
  -21.6580   13.0980   28.3770 C   0  0  0  0  0  0  0  0  0  0  0  0
  -22.3680   13.2180   29.1590 H   0  0  0  0  0  0  0  0  0  0  0  0
  -21.5160   11.8420   27.7490 C   0  0  0  0  0  0  0  0  0  0  0  0
  -22.1220   11.0340   28.0690 H   0  0  0  0  0  0  0  0  0  0  0  0
  -20.6030   11.6770   26.7400 C   0  0  0  0  0  0  0  0  0  0  0  0
  -20.4940   10.7350   26.2660 H   0  0  0  0  0  0  0  0  0  0  0  0
  1  2  1  0
  2  3  2  0
  2  8  1  0
  3  4  1  0
  3 15  1  0
  4  5  2  0
  4 10  1  0
  5  6  1  0
  6  7  1  0
  6  8  2  0
  8  9  1  0
 10 11  2  0
 11 12  1  0
 11 13  1  0
 13 14  1  0
 13 15  2  0
 15 16  1  0
M  END
>  <EnInt_ele>  (1) 
-1.744255

>  <EnInt_vdw>  (1) 
1.118674

>  <EnInt_tot>  (1) 
-0.6255813

>  <Charges>  (1) 
-0.11 0.11 0.00 0.62 -0.62 0.16 0.15 -0.15 0.15 -0.62 0.16 0.15 -0.15 0.15 -0.15 0.15

$$$$
