
     RDKit          3D

 26 26  0  0  0  0  0  0  0  0999 V2000
  -16.9830   18.7220   27.0100 S   0  0  0  0  0  0  0  0  0  0  0  0
  -17.9760   18.3200   27.9830 O   0  0  0  0  0  0  0  0  0  0  0  0
  -17.0900   19.9710   26.2870 O   0  0  0  0  0  0  0  0  0  0  0  0
  -16.8210   17.5050   25.8560 N   0  0  0  0  0  0  0  0  0  0  0  0
  -16.0820   17.6640   25.1670 H   0  0  0  0  0  0  0  0  0  0  0  0
  -17.0890   16.1040   26.2300 C   0  0  0  0  0  0  0  0  0  0  0  0
  -16.4150   15.4660   25.6470 H   0  0  0  0  0  0  0  0  0  0  0  0
  -16.8870   15.9360   27.2930 H   0  0  0  0  0  0  0  0  0  0  0  0
  -18.5360   15.7330   25.8990 C   0  0  0  0  0  0  0  0  0  0  0  0
  -19.2260   16.2010   26.6130 H   0  0  0  0  0  0  0  0  0  0  0  0
  -18.7960   16.1480   24.9160 H   0  0  0  0  0  0  0  0  0  0  0  0
  -18.7730   14.2390   25.8700 C   0  0  0  0  0  0  0  0  0  0  0  0
  -19.5140   13.6260   26.8880 C   0  0  0  0  0  0  0  0  0  0  0  0
  -19.8990   14.2030   27.6880 H   0  0  0  0  0  0  0  0  0  0  0  0
  -19.7490   12.2540   26.8560 C   0  0  0  0  0  0  0  0  0  0  0  0
  -20.3070   11.7790   27.6200 H   0  0  0  0  0  0  0  0  0  0  0  0
  -19.2390   11.5130   25.7990 C   0  0  0  0  0  0  0  0  0  0  0  0
  -19.4640   10.1910   25.7670 F   0  0  0  0  0  0  0  0  0  0  0  0
  -18.5060   12.0950   24.7750 C   0  0  0  0  0  0  0  0  0  0  0  0
  -18.1370   11.5030   23.9790 H   0  0  0  0  0  0  0  0  0  0  0  0
  -18.2740   13.4680   24.8150 C   0  0  0  0  0  0  0  0  0  0  0  0
  -17.7230   13.9280   24.0340 H   0  0  0  0  0  0  0  0  0  0  0  0
  -15.3860   18.6870   27.7950 C   0  0  0  0  0  0  0  0  0  0  0  0
  -15.2500   17.7260   28.2940 H   0  0  0  0  0  0  0  0  0  0  0  0
  -15.3580   19.4920   28.5330 H   0  0  0  0  0  0  0  0  0  0  0  0
  -14.6160   18.8510   27.0390 H   0  0  0  0  0  0  0  0  0  0  0  0
  1  2  2  0
  1  3  2  0
  1  4  1  0
  1 23  1  0
  4  5  1  0
  4  6  1  0
  6  7  1  0
  6  8  1  0
  6  9  1  0
  9 10  1  0
  9 11  1  0
  9 12  1  0
 12 13  2  0
 12 21  1  0
 13 14  1  0
 13 15  1  0
 15 16  1  0
 15 17  2  0
 17 18  1  0
 17 19  1  0
 19 20  1  0
 19 21  2  0
 21 22  1  0
 23 24  1  0
 23 25  1  0
 23 26  1  0
M  END
>  <EnInt_ele>  (1) 
-52.07737

>  <EnInt_vdw>  (1) 
-1.254222

>  <EnInt_tot>  (1) 
-53.33159

>  <Charges>  (1) 
1.33 -0.65 -0.65 -0.91 0.42 0.36 0.00 0.00 0.14 0.00 0.00 -0.14 -0.15 0.15 -0.15 0.15 0.19 -0.19 -0.15 0.15 -0.15 0.15 0.10 0.00 0.00 0.00

$$$$
