
     RDKit          3D

 31 32  0  0  0  0  0  0  0  0999 V2000
  -23.1120   11.9720   27.3210 O   0  0  0  0  0  0  0  0  0  0  0  0
  -23.0540   13.0690   27.8600 C   0  0  0  0  0  0  0  0  0  0  0  0
  -21.8420   13.4480   28.3540 N   0  0  0  0  0  0  0  0  0  0  0  0
  -21.7080   14.3940   28.7300 H   0  0  0  0  0  0  0  0  0  0  0  0
  -20.6930   12.5650   28.3370 C   0  0  0  0  0  0  0  0  0  0  0  0
  -20.9850   11.6070   28.7820 H   0  0  0  0  0  0  0  0  0  0  0  0
  -19.9060   13.0010   28.9620 H   0  0  0  0  0  0  0  0  0  0  0  0
  -20.2360   12.3850   26.9330 C   0  0  0  0  0  0  0  0  0  0  0  0
  -19.7150   13.3300   26.1160 C   0  0  0  0  0  0  0  0  0  0  0  0
  -19.5120   14.3570   26.2660 H   0  0  0  0  0  0  0  0  0  0  0  0
  -19.4610   12.7060   24.9440 N   0  0  0  0  0  0  0  0  0  0  0  0
  -18.8990   13.2710   23.7350 C   0  0  0  0  0  0  0  0  0  0  0  0
  -19.1700   12.6140   22.9020 H   0  0  0  0  0  0  0  0  0  0  0  0
  -19.3810   14.2400   23.5680 H   0  0  0  0  0  0  0  0  0  0  0  0
  -17.3910   13.4240   23.8180 C   0  0  0  0  0  0  0  0  0  0  0  0
  -16.9060   12.4570   23.9900 H   0  0  0  0  0  0  0  0  0  0  0  0
  -17.1060   14.0900   24.6390 H   0  0  0  0  0  0  0  0  0  0  0  0
  -17.0000   13.8430   22.8860 H   0  0  0  0  0  0  0  0  0  0  0  0
  -19.8020   11.3940   24.9910 N   0  0  0  0  0  0  0  0  0  0  0  0
  -20.2710   11.2090   26.1940 C   0  0  0  0  0  0  0  0  0  0  0  0
  -20.6230   10.2700   26.5410 H   0  0  0  0  0  0  0  0  0  0  0  0
  -24.2100   13.9830   27.9470 C   0  0  0  0  0  0  0  0  0  0  0  0
  -25.2530   13.8150   27.0270 C   0  0  0  0  0  0  0  0  0  0  0  0
  -25.1900   13.0480   26.2950 H   0  0  0  0  0  0  0  0  0  0  0  0
  -26.3380   14.5920   27.0260 N   0  0  0  0  0  0  0  0  0  0  0  0
  -26.4550   15.5640   27.9290 C   0  0  0  0  0  0  0  0  0  0  0  0
  -27.3290   16.1650   27.9020 H   0  0  0  0  0  0  0  0  0  0  0  0
  -25.4690   15.7940   28.8850 C   0  0  0  0  0  0  0  0  0  0  0  0
  -25.5930   16.5710   29.5930 H   0  0  0  0  0  0  0  0  0  0  0  0
  -24.3300   14.9990   28.9030 C   0  0  0  0  0  0  0  0  0  0  0  0
  -23.5820   15.1610   29.6340 H   0  0  0  0  0  0  0  0  0  0  0  0
  1  2  2  0
  2  3  1  0
  2 22  1  0
  3  4  1  0
  3  5  1  0
  5  6  1  0
  5  7  1  0
  5  8  1  0
  8  9  2  0
  8 20  1  0
  9 10  1  0
  9 11  1  0
 11 12  1  0
 11 19  1  0
 12 13  1  0
 12 14  1  0
 12 15  1  0
 15 16  1  0
 15 17  1  0
 15 18  1  0
 19 20  2  0
 20 21  1  0
 22 23  2  0
 22 30  1  0
 23 24  1  0
 23 25  1  0
 25 26  2  0
 26 27  1  0
 26 28  1  0
 28 29  1  0
 28 30  2  0
 30 31  1  0
M  END
>  <EnInt_ele>  (1) 
-16.975

>  <EnInt_vdw>  (1) 
3.546499

>  <EnInt_tot>  (1) 
-13.4285

>  <Charges>  (1) 
-0.57 0.54 -0.73 0.37 0.48 0.00 0.00 -0.18 -0.30 0.15 0.31 0.26 0.00 0.00 0.00 0.00 0.00 0.00 -0.71 0.14 0.15 0.09 0.16 0.15 -0.62 0.16 0.15 -0.15 0.15 -0.15 0.15

$$$$
