
     RDKit          3D

 31 32  0  0  0  0  0  0  0  0999 V2000
  -22.3430   10.5840   27.2130 O   0  0  0  0  0  0  0  0  0  0  0  0
  -21.6410   11.5010   27.6160 C   0  0  0  0  0  0  0  0  0  0  0  0
  -21.8820   11.9500   28.8800 N   0  0  0  0  0  0  0  0  0  0  0  0
  -21.2650   12.6500   29.3090 H   0  0  0  0  0  0  0  0  0  0  0  0
  -22.9780   11.4420   29.6820 C   0  0  0  0  0  0  0  0  0  0  0  0
  -22.9250   10.3470   29.6890 H   0  0  0  0  0  0  0  0  0  0  0  0
  -23.9220   11.7310   29.2080 H   0  0  0  0  0  0  0  0  0  0  0  0
  -22.8690   11.9900   31.0600 C   0  0  0  0  0  0  0  0  0  0  0  0
  -23.3380   13.1800   31.5050 C   0  0  0  0  0  0  0  0  0  0  0  0
  -23.8670   13.9560   31.0180 H   0  0  0  0  0  0  0  0  0  0  0  0
  -22.9970   13.2470   32.8120 N   0  0  0  0  0  0  0  0  0  0  0  0
  -23.2630   14.3160   33.7500 C   0  0  0  0  0  0  0  0  0  0  0  0
  -24.2880   14.6620   33.5810 H   0  0  0  0  0  0  0  0  0  0  0  0
  -23.2150   13.8910   34.7580 H   0  0  0  0  0  0  0  0  0  0  0  0
  -22.2850   15.4680   33.6020 C   0  0  0  0  0  0  0  0  0  0  0  0
  -22.3270   15.8920   32.5930 H   0  0  0  0  0  0  0  0  0  0  0  0
  -21.2560   15.1390   33.7820 H   0  0  0  0  0  0  0  0  0  0  0  0
  -22.5200   16.2610   34.3170 H   0  0  0  0  0  0  0  0  0  0  0  0
  -22.3280   12.1360   33.2120 N   0  0  0  0  0  0  0  0  0  0  0  0
  -22.2530   11.3850   32.1480 C   0  0  0  0  0  0  0  0  0  0  0  0
  -21.7820   10.4340   32.1420 H   0  0  0  0  0  0  0  0  0  0  0  0
  -20.5460   12.0850   26.8180 C   0  0  0  0  0  0  0  0  0  0  0  0
  -20.2470   13.4410   27.0020 C   0  0  0  0  0  0  0  0  0  0  0  0
  -20.8080   14.0130   27.7000 H   0  0  0  0  0  0  0  0  0  0  0  0
  -19.2750   14.0580   26.3270 N   0  0  0  0  0  0  0  0  0  0  0  0
  -18.5480   13.3750   25.4440 C   0  0  0  0  0  0  0  0  0  0  0  0
  -17.7830   13.8930   24.9230 H   0  0  0  0  0  0  0  0  0  0  0  0
  -18.7730   12.0220   25.2050 C   0  0  0  0  0  0  0  0  0  0  0  0
  -18.1750   11.5040   24.5020 H   0  0  0  0  0  0  0  0  0  0  0  0
  -19.7800   11.3600   25.8960 C   0  0  0  0  0  0  0  0  0  0  0  0
  -19.9500   10.3290   25.7270 H   0  0  0  0  0  0  0  0  0  0  0  0
  1  2  2  0
  2  3  1  0
  2 22  1  0
  3  4  1  0
  3  5  1  0
  5  6  1  0
  5  7  1  0
  5  8  1  0
  8  9  2  0
  8 20  1  0
  9 10  1  0
  9 11  1  0
 11 12  1  0
 11 19  1  0
 12 13  1  0
 12 14  1  0
 12 15  1  0
 15 16  1  0
 15 17  1  0
 15 18  1  0
 19 20  2  0
 20 21  1  0
 22 23  2  0
 22 30  1  0
 23 24  1  0
 23 25  1  0
 25 26  2  0
 26 27  1  0
 26 28  1  0
 28 29  1  0
 28 30  2  0
 30 31  1  0
M  END
>  <EnInt_ele>  (1) 
-11.96907

>  <EnInt_vdw>  (1) 
4.733963

>  <EnInt_tot>  (1) 
-7.23511

>  <Charges>  (1) 
-0.57 0.54 -0.73 0.37 0.48 0.00 0.00 -0.18 -0.30 0.15 0.31 0.26 0.00 0.00 0.00 0.00 0.00 0.00 -0.71 0.14 0.15 0.09 0.16 0.15 -0.62 0.16 0.15 -0.15 0.15 -0.15 0.15

$$$$
