
     RDKit          3D

 27 28  0  0  0  0  0  0  0  0999 V2000
  -18.8300   14.8350   26.0570 O   0  0  0  0  0  0  0  0  0  0  0  0
  -17.5380   15.2040   26.5210 C   0  0  0  0  0  0  0  0  0  0  0  0
  -17.5360   16.2870   26.6790 H   0  0  0  0  0  0  0  0  0  0  0  0
  -16.7700   14.9760   25.7730 H   0  0  0  0  0  0  0  0  0  0  0  0
  -17.3120   14.7280   27.4810 H   0  0  0  0  0  0  0  0  0  0  0  0
  -19.0710   13.5090   25.7660 C   0  0  0  0  0  0  0  0  0  0  0  0
  -20.1190   12.9070   26.4770 C   0  0  0  0  0  0  0  0  0  0  0  0
  -20.3790   11.5500   26.2320 C   0  0  0  0  0  0  0  0  0  0  0  0
  -21.3530   10.7420   26.8670 N   0  0  0  0  0  0  0  0  0  0  0  0
  -21.4620    9.7980   26.4770 H   0  0  0  0  0  0  0  0  0  0  0  0
  -22.1950   10.9300   27.9170 C   0  0  0  0  0  0  0  0  0  0  0  0
  -22.8600    9.9520   28.1690 O   0  0  0  0  0  0  0  0  0  0  0  0
  -22.2280   12.1780   28.7280 C   0  0  0  0  0  0  0  0  0  0  0  0
  -23.1380   12.1440   29.3390 H   0  0  0  0  0  0  0  0  0  0  0  0
  -21.3730   12.1880   29.4120 H   0  0  0  0  0  0  0  0  0  0  0  0
  -22.2810   13.3950   27.8400 C   0  0  0  0  0  0  0  0  0  0  0  0
  -22.9190   13.2310   26.9630 H   0  0  0  0  0  0  0  0  0  0  0  0
  -22.7250   14.2210   28.4080 H   0  0  0  0  0  0  0  0  0  0  0  0
  -20.8840   13.8100   27.4220 C   0  0  0  0  0  0  0  0  0  0  0  0
  -20.2640   13.9740   28.3130 H   0  0  0  0  0  0  0  0  0  0  0  0
  -21.0150   14.7880   26.9420 H   0  0  0  0  0  0  0  0  0  0  0  0
  -19.6200   10.8270   25.3100 C   0  0  0  0  0  0  0  0  0  0  0  0
  -19.8300    9.8030   25.1370 H   0  0  0  0  0  0  0  0  0  0  0  0
  -18.5890   11.4460   24.6150 C   0  0  0  0  0  0  0  0  0  0  0  0
  -18.0160   10.8950   23.9140 H   0  0  0  0  0  0  0  0  0  0  0  0
  -18.3120   12.7890   24.8390 C   0  0  0  0  0  0  0  0  0  0  0  0
  -17.5260   13.2540   24.3050 H   0  0  0  0  0  0  0  0  0  0  0  0
  1  2  1  0
  1  6  1  0
  2  3  1  0
  2  4  1  0
  2  5  1  0
  6  7  2  0
  6 26  1  0
  7  8  1  0
  7 19  1  0
  8  9  1  0
  8 22  2  0
  9 10  1  0
  9 11  1  0
 11 12  2  0
 11 13  1  0
 13 14  1  0
 13 15  1  0
 13 16  1  0
 16 17  1  0
 16 18  1  0
 16 19  1  0
 19 20  1  0
 19 21  1  0
 22 23  1  0
 22 24  1  0
 24 25  1  0
 24 26  2  0
 26 27  1  0
M  END
>  <EnInt_ele>  (1) 
1.772147

>  <EnInt_vdw>  (1) 
2.09482

>  <EnInt_tot>  (1) 
3.866967

>  <Charges>  (1) 
-0.36 0.28 0.00 0.00 0.00 0.08 -0.14 0.12 -0.55 0.37 0.57 -0.57 0.06 0.00 0.00 0.00 0.00 0.00 0.14 0.00 0.00 -0.15 0.15 -0.15 0.15 -0.15 0.15

$$$$
