
     RDKit          3D

 23 24  0  0  0  0  0  0  0  0999 V2000
  -17.6896   17.4322   26.0430 N   0  0  0  0  0  0  0  0  0  0  0  0
  -17.0667   17.2600   25.2391 H   0  0  0  0  0  0  0  0  0  0  0  0
  -18.5602   17.7788   25.6157 H   0  0  0  0  0  0  0  0  0  0  0  0
  -17.9843   16.1121   26.6898 C   0  0  0  0  0  0  0  0  0  0  0  0
  -17.0832   15.8194   27.2366 H   0  0  0  0  0  0  0  0  0  0  0  0
  -18.8087   16.2807   27.3910 H   0  0  0  0  0  0  0  0  0  0  0  0
  -18.3489   15.0951   25.6775 C   0  0  0  0  0  0  0  0  0  0  0  0
  -18.4449   13.7770   25.8962 N   0  0  0  0  0  0  0  0  0  0  0  0
  -18.7943   13.2152   24.7161 C   0  0  0  0  0  0  0  0  0  0  0  0
  -18.9105   14.1646   23.8160 N   0  0  0  0  0  0  0  0  0  0  0  0
  -18.6322   15.3423   24.4307 N   0  0  0  0  0  0  0  0  0  0  0  0
  -18.9658   11.8000   24.6518 C   0  0  0  0  0  0  0  0  0  0  0  0
  -19.2376   11.3585   23.7275 H   0  0  0  0  0  0  0  0  0  0  0  0
  -18.7782   11.0414   25.7715 C   0  0  0  0  0  0  0  0  0  0  0  0
  -18.9014    9.9879   25.7394 H   0  0  0  0  0  0  0  0  0  0  0  0
  -18.4123   11.6712   27.0023 C   0  0  0  0  0  0  0  0  0  0  0  0
  -18.2723   11.0662   27.8639 H   0  0  0  0  0  0  0  0  0  0  0  0
  -18.2456   13.0268   27.0685 C   0  0  0  0  0  0  0  0  0  0  0  0
  -17.9772   13.5713   27.9355 H   0  0  0  0  0  0  0  0  0  0  0  0
  -17.1057   18.4605   26.9358 C   0  0  0  0  0  0  0  0  0  0  0  0
  -16.1589   18.0809   27.3253 H   0  0  0  0  0  0  0  0  0  0  0  0
  -17.8162   18.6592   27.7415 H   0  0  0  0  0  0  0  0  0  0  0  0
  -16.9427   19.3604   26.3382 H   0  0  0  0  0  0  0  0  0  0  0  0
  1  2  1  0
  1  3  1  0
  1  4  1  0
  1 20  1  0
  4  5  1  0
  4  6  1  0
  4  7  1  0
  7  8  1  0
  7 11  2  0
  8  9  1  0
  8 18  1  0
  9 10  2  0
  9 12  1  0
 10 11  1  0
 12 13  1  0
 12 14  2  0
 14 15  1  0
 14 16  1  0
 16 17  1  0
 16 18  2  0
 18 19  1  0
 20 21  1  0
 20 22  1  0
 20 23  1  0
M  END
$$$$
