
     RDKit          3D

 26 26  0  0  0  0  0  0  0  0999 V2000
  -15.4520   17.6310   27.0520 S   0  0  0  0  0  0  0  0  0  0  0  0
  -14.2980   17.5600   26.1830 O   0  0  0  0  0  0  0  0  0  0  0  0
  -15.4650   16.9950   28.3520 O   0  0  0  0  0  0  0  0  0  0  0  0
  -16.8020   17.0610   26.2200 N   0  0  0  0  0  0  0  0  0  0  0  0
  -16.8950   17.4110   25.2630 H   0  0  0  0  0  0  0  0  0  0  0  0
  -17.2940   15.6940   26.4770 C   0  0  0  0  0  0  0  0  0  0  0  0
  -16.5330   14.9900   26.1240 H   0  0  0  0  0  0  0  0  0  0  0  0
  -17.4460   15.5270   27.5490 H   0  0  0  0  0  0  0  0  0  0  0  0
  -18.5960   15.4460   25.7120 C   0  0  0  0  0  0  0  0  0  0  0  0
  -19.4000   16.0840   26.1010 H   0  0  0  0  0  0  0  0  0  0  0  0
  -18.4580   15.7440   24.6650 H   0  0  0  0  0  0  0  0  0  0  0  0
  -19.0360   13.9980   25.7460 C   0  0  0  0  0  0  0  0  0  0  0  0
  -18.7440   13.1500   24.6720 C   0  0  0  0  0  0  0  0  0  0  0  0
  -18.2260   13.5210   23.8260 H   0  0  0  0  0  0  0  0  0  0  0  0
  -19.1330   11.8140   24.7070 C   0  0  0  0  0  0  0  0  0  0  0  0
  -18.9180   11.1620   23.9000 H   0  0  0  0  0  0  0  0  0  0  0  0
  -19.8090   11.3430   25.8240 C   0  0  0  0  0  0  0  0  0  0  0  0
  -20.1840   10.0560   25.8600 F   0  0  0  0  0  0  0  0  0  0  0  0
  -20.1070   12.1600   26.9050 C   0  0  0  0  0  0  0  0  0  0  0  0
  -20.6180   11.7690   27.7450 H   0  0  0  0  0  0  0  0  0  0  0  0
  -19.7160   13.4960   26.8610 C   0  0  0  0  0  0  0  0  0  0  0  0
  -19.9300   14.1310   27.6840 H   0  0  0  0  0  0  0  0  0  0  0  0
  -15.8720   19.3450   27.2840 C   0  0  0  0  0  0  0  0  0  0  0  0
  -15.9360   19.8360   26.3120 H   0  0  0  0  0  0  0  0  0  0  0  0
  -15.0800   19.8070   27.8780 H   0  0  0  0  0  0  0  0  0  0  0  0
  -16.8210   19.4080   27.8210 H   0  0  0  0  0  0  0  0  0  0  0  0
  1  2  2  0
  1  3  2  0
  1  4  1  0
  1 23  1  0
  4  5  1  0
  4  6  1  0
  6  7  1  0
  6  8  1  0
  6  9  1  0
  9 10  1  0
  9 11  1  0
  9 12  1  0
 12 13  2  0
 12 21  1  0
 13 14  1  0
 13 15  1  0
 15 16  1  0
 15 17  2  0
 17 18  1  0
 17 19  1  0
 19 20  1  0
 19 21  2  0
 21 22  1  0
 23 24  1  0
 23 25  1  0
 23 26  1  0
M  END
>  <EnInt_ele>  (1) 
-44.77833

>  <EnInt_vdw>  (1) 
-2.138845

>  <EnInt_tot>  (1) 
-46.91718

>  <Charges>  (1) 
1.33 -0.65 -0.65 -0.91 0.42 0.36 0.00 0.00 0.14 0.00 0.00 -0.14 -0.15 0.15 -0.15 0.15 0.19 -0.19 -0.15 0.15 -0.15 0.15 0.10 0.00 0.00 0.00

$$$$
