
     RDKit          3D

 14 14  0  0  0  0  0  0  0  0999 V2000
  -22.2620   12.3580   25.3300 O   0  0  0  0  0  0  0  0  0  0  0  0
  -21.8500   12.7710   26.4490 C   0  0  0  0  0  0  0  0  0  0  0  0
  -22.6200   13.4520   27.1880 O   0  0  0  0  0  0  0  0  0  0  0  0
  -20.4940   12.4610   26.8870 C   0  0  0  0  0  0  0  0  0  0  0  0
  -19.4030   12.1540   26.0910 C   0  0  0  0  0  0  0  0  0  0  0  0
  -19.4280   12.0860   24.5910 C   0  0  0  0  0  0  0  0  0  0  0  0
  -18.4430   11.8220   24.1910 H   0  0  0  0  0  0  0  0  0  0  0  0
  -19.7050   13.0560   24.1650 H   0  0  0  0  0  0  0  0  0  0  0  0
  -20.1350   11.3230   24.2510 H   0  0  0  0  0  0  0  0  0  0  0  0
  -18.2350   11.9060   26.8290 C   0  0  0  0  0  0  0  0  0  0  0  0
  -17.3040   11.6590   26.3880 H   0  0  0  0  0  0  0  0  0  0  0  0
  -18.4190   12.0180   28.1760 C   0  0  0  0  0  0  0  0  0  0  0  0
  -17.6970   11.8790   28.9390 H   0  0  0  0  0  0  0  0  0  0  0  0
  -20.0420   12.4320   28.5680 S   0  0  0  0  0  0  0  0  0  0  0  0
  1  2  1  0
  2  3  2  0
  2  4  1  0
  4  5  2  0
  4 14  1  0
  5  6  1  0
  5 10  1  0
  6  7  1  0
  6  8  1  0
  6  9  1  0
 10 11  1  0
 10 12  2  0
 12 13  1  0
 12 14  1  0
M  END
>  <EnInt_ele>  (1) 
-2.042686

>  <EnInt_vdw>  (1) 
4.058672

>  <EnInt_tot>  (1) 
2.015985

>  <Charges>  (1) 
-0.15 0.81 -0.57 -0.04 -0.18 0.18 0.00 0.00 0.00 -0.15 0.15 -0.11 0.15 -0.08

$$$$
