
     RDKit          3D

 30 31  0  0  0  0  0  0  0  0999 V2000
  -25.3570   12.6170   29.5910 F   0  0  0  0  0  0  0  0  0  0  0  0
  -24.1690   12.5960   28.9710 C   0  0  0  0  0  0  0  0  0  0  0  0
  -23.0240   12.3590   29.7220 C   0  0  0  0  0  0  0  0  0  0  0  0
  -23.0950   12.2010   30.7660 H   0  0  0  0  0  0  0  0  0  0  0  0
  -21.7900   12.3390   29.0780 C   0  0  0  0  0  0  0  0  0  0  0  0
  -20.9020   12.1800   29.6290 H   0  0  0  0  0  0  0  0  0  0  0  0
  -21.7210   12.5510   27.6940 C   0  0  0  0  0  0  0  0  0  0  0  0
  -20.4900   12.5330   27.0500 N   0  0  0  0  0  0  0  0  0  0  0  0
  -19.9720   11.3270   26.3890 C   0  0  0  0  0  0  0  0  0  0  0  0
  -19.0990   10.9640   26.9440 H   0  0  0  0  0  0  0  0  0  0  0  0
  -20.7080   10.5160   26.3590 H   0  0  0  0  0  0  0  0  0  0  0  0
  -19.5780   11.6610   24.9420 C   0  0  0  0  0  0  0  0  0  0  0  0
  -20.4740   11.9120   24.3610 H   0  0  0  0  0  0  0  0  0  0  0  0
  -19.1230   10.7830   24.4720 H   0  0  0  0  0  0  0  0  0  0  0  0
  -18.6910   12.8300   24.8670 N   0  0  0  0  0  0  0  0  0  0  0  0
  -17.4950   12.7120   24.2120 C   0  0  0  0  0  0  0  0  0  0  0  0
  -17.0290   11.6510   23.8320 O   0  0  0  0  0  0  0  0  0  0  0  0
  -16.8330   13.8480   23.9800 N   0  0  0  0  0  0  0  0  0  0  0  0
  -16.6690   14.4200   24.8140 H   0  0  0  0  0  0  0  0  0  0  0  0
  -16.1070   13.8060   23.2610 H   0  0  0  0  0  0  0  0  0  0  0  0
  -19.2130   14.0250   25.5520 C   0  0  0  0  0  0  0  0  0  0  0  0
  -18.4830   14.8370   25.5660 H   0  0  0  0  0  0  0  0  0  0  0  0
  -20.0880   14.3620   24.9850 H   0  0  0  0  0  0  0  0  0  0  0  0
  -19.6070   13.7060   27.0040 C   0  0  0  0  0  0  0  0  0  0  0  0
  -20.0440   14.5940   27.4730 H   0  0  0  0  0  0  0  0  0  0  0  0
  -18.7020   13.4700   27.5790 H   0  0  0  0  0  0  0  0  0  0  0  0
  -22.8900   12.7940   26.9540 C   0  0  0  0  0  0  0  0  0  0  0  0
  -22.8460   12.9480   25.9100 H   0  0  0  0  0  0  0  0  0  0  0  0
  -24.1220   12.8150   27.5990 C   0  0  0  0  0  0  0  0  0  0  0  0
  -25.0160   12.9910   27.0610 H   0  0  0  0  0  0  0  0  0  0  0  0
  1  2  1  0
  2  3  2  0
  2 29  1  0
  3  4  1  0
  3  5  1  0
  5  6  1  0
  5  7  2  0
  7  8  1  0
  7 27  1  0
  8  9  1  0
  8 24  1  0
  9 10  1  0
  9 11  1  0
  9 12  1  0
 12 13  1  0
 12 14  1  0
 12 15  1  0
 15 16  1  0
 15 21  1  0
 16 17  2  0
 16 18  1  0
 18 19  1  0
 18 20  1  0
 21 22  1  0
 21 23  1  0
 21 24  1  0
 24 25  1  0
 24 26  1  0
 27 28  1  0
 27 29  2  0
 29 30  1  0
M  END
>  <EnInt_ele>  (1) 
-3.740787

>  <EnInt_vdw>  (1) 
-0.5663387

>  <EnInt_tot>  (1) 
-4.307126

>  <Charges>  (1) 
-0.19 0.19 -0.15 0.15 -0.15 0.15 0.10 -0.84 0.37 0.00 0.00 0.30 0.00 0.00 -0.66 0.69 -0.57 -0.80 0.37 0.37 0.30 0.00 0.00 0.37 0.00 0.00 -0.15 0.15 -0.15 0.15

$$$$
