
     RDKit          3D

 26 26  0  0  1  0  0  0  0  0999 V2000
  -20.2580   14.3770   27.8070 F   0  0  0  0  0  0  0  0  0  0  0  0
  -21.0120   13.2750   27.6680 C   0  0  0  0  0  0  0  0  0  0  0  0
  -20.4880   12.0670   27.1740 C   0  0  0  0  0  0  0  0  0  0  0  0
  -19.1350   11.9320   26.8210 N   0  0  0  0  0  0  0  0  0  0  0  0
  -18.8200   11.6460   25.4020 C   0  0  0  0  0  0  0  0  0  0  0  0
  -19.5610   12.6150   24.4620 C   0  0  0  0  0  0  0  0  0  0  0  0
  -20.6370   12.5960   24.6650 H   0  0  0  0  0  0  0  0  0  0  0  0
  -19.4180   12.3450   23.4110 H   0  0  0  0  0  0  0  0  0  0  0  0
  -19.1090   13.9580   24.6270 O   0  0  0  0  0  0  0  0  0  0  0  0
  -19.5080   14.4480   23.8860 H   0  0  0  0  0  0  0  0  0  0  0  0
  -19.0970   10.1850   25.0240 C   0  0  0  0  0  0  0  0  0  0  0  0
  -18.6810    9.9670   24.0340 H   0  0  0  0  0  0  0  0  0  0  0  0
  -20.1660    9.9580   24.9760 H   0  0  0  0  0  0  0  0  0  0  0  0
  -18.6330    9.5000   25.7400 H   0  0  0  0  0  0  0  0  0  0  0  0
  -18.0860   12.0780   27.8200 C   0  0  0  0  0  0  0  0  0  0  0  0
  -17.9360   13.1330   28.0730 H   0  0  0  0  0  0  0  0  0  0  0  0
  -17.1260   11.6820   27.4770 H   0  0  0  0  0  0  0  0  0  0  0  0
  -18.3220   11.5120   28.7290 H   0  0  0  0  0  0  0  0  0  0  0  0
  -21.2600   10.9800   27.0280 N   0  0  0  0  0  0  0  0  0  0  0  0
  -22.5570   11.0660   27.3490 C   0  0  0  0  0  0  0  0  0  0  0  0
  -23.1540   10.1990   27.2230 H   0  0  0  0  0  0  0  0  0  0  0  0
  -23.1330   12.2410   27.8360 C   0  0  0  0  0  0  0  0  0  0  0  0
  -24.1640   12.2640   28.0770 H   0  0  0  0  0  0  0  0  0  0  0  0
  -22.3480   13.3790   28.0040 C   0  0  0  0  0  0  0  0  0  0  0  0
  -22.7500   14.2860   28.3730 H   0  0  0  0  0  0  0  0  0  0  0  0
  -17.7420   11.7720   25.2330 H   0  0  0  0  0  0  0  0  0  0  0  0
  1  2  1  0
  2  3  2  0
  2 24  1  0
  3  4  1  0
  3 19  1  0
  4  5  1  0
  4 15  1  0
  5  6  1  0
  5 11  1  0
  5 26  1  0
  6  7  1  0
  6  8  1  0
  6  9  1  0
  9 10  1  0
 11 12  1  0
 11 13  1  0
 11 14  1  0
 15 16  1  0
 15 17  1  0
 15 18  1  0
 19 20  2  0
 20 21  1  0
 20 22  1  0
 22 23  1  0
 22 24  2  0
 24 25  1  0
M  END
>  <EnInt_ele>  (1) 
1.484573

>  <EnInt_vdw>  (1) 
1.849458

>  <EnInt_tot>  (1) 
3.334032

>  <Charges>  (1) 
-0.19 0.19 0.41 -0.84 0.37 0.28 0.00 0.00 -0.68 0.40 0.00 0.00 0.00 0.00 0.37 0.00 0.00 0.00 -0.62 0.16 0.15 -0.15 0.15 -0.15 0.15 0.00

$$$$
