
     RDKit          3D

 27 28  0  0  0  0  0  0  0  0999 V2000
  -18.8270   14.8280   26.0540 O   0  0  0  0  0  0  0  0  0  0  0  0
  -17.5360   15.1960   26.5220 C   0  0  0  0  0  0  0  0  0  0  0  0
  -17.5330   16.2790   26.6780 H   0  0  0  0  0  0  0  0  0  0  0  0
  -16.7660   14.9660   25.7770 H   0  0  0  0  0  0  0  0  0  0  0  0
  -17.3140   14.7210   27.4830 H   0  0  0  0  0  0  0  0  0  0  0  0
  -19.0680   13.5020   25.7640 C   0  0  0  0  0  0  0  0  0  0  0  0
  -20.1170   12.9010   26.4750 C   0  0  0  0  0  0  0  0  0  0  0  0
  -20.3780   11.5450   26.2310 C   0  0  0  0  0  0  0  0  0  0  0  0
  -21.3530   10.7380   26.8660 N   0  0  0  0  0  0  0  0  0  0  0  0
  -21.4620    9.7940   26.4770 H   0  0  0  0  0  0  0  0  0  0  0  0
  -22.1960   10.9270   27.9150 C   0  0  0  0  0  0  0  0  0  0  0  0
  -22.8620    9.9500   28.1670 O   0  0  0  0  0  0  0  0  0  0  0  0
  -22.2280   12.1760   28.7250 C   0  0  0  0  0  0  0  0  0  0  0  0
  -23.1390   12.1430   29.3350 H   0  0  0  0  0  0  0  0  0  0  0  0
  -21.3730   12.1860   29.4100 H   0  0  0  0  0  0  0  0  0  0  0  0
  -22.2800   13.3920   27.8360 C   0  0  0  0  0  0  0  0  0  0  0  0
  -22.9170   13.2280   26.9590 H   0  0  0  0  0  0  0  0  0  0  0  0
  -22.7230   14.2190   28.4040 H   0  0  0  0  0  0  0  0  0  0  0  0
  -20.8820   13.8050   27.4180 C   0  0  0  0  0  0  0  0  0  0  0  0
  -20.2620   13.9700   28.3100 H   0  0  0  0  0  0  0  0  0  0  0  0
  -21.0120   14.7840   26.9370 H   0  0  0  0  0  0  0  0  0  0  0  0
  -19.6180   10.8200   25.3100 C   0  0  0  0  0  0  0  0  0  0  0  0
  -19.8290    9.7960   25.1370 H   0  0  0  0  0  0  0  0  0  0  0  0
  -18.5880   11.4380   24.6150 C   0  0  0  0  0  0  0  0  0  0  0  0
  -18.0140   10.8860   23.9140 H   0  0  0  0  0  0  0  0  0  0  0  0
  -18.3090   12.7810   24.8380 C   0  0  0  0  0  0  0  0  0  0  0  0
  -17.5220   13.2450   24.3040 H   0  0  0  0  0  0  0  0  0  0  0  0
  1  2  1  0
  1  6  1  0
  2  3  1  0
  2  4  1  0
  2  5  1  0
  6  7  2  0
  6 26  1  0
  7  8  1  0
  7 19  1  0
  8  9  1  0
  8 22  2  0
  9 10  1  0
  9 11  1  0
 11 12  2  0
 11 13  1  0
 13 14  1  0
 13 15  1  0
 13 16  1  0
 16 17  1  0
 16 18  1  0
 16 19  1  0
 19 20  1  0
 19 21  1  0
 22 23  1  0
 22 24  1  0
 24 25  1  0
 24 26  2  0
 26 27  1  0
M  END
>  <EnInt_ele>  (1) 
1.770688

>  <EnInt_vdw>  (1) 
2.099862

>  <EnInt_tot>  (1) 
3.87055

>  <Charges>  (1) 
-0.36 0.28 0.00 0.00 0.00 0.08 -0.14 0.12 -0.55 0.37 0.57 -0.57 0.06 0.00 0.00 0.00 0.00 0.00 0.14 0.00 0.00 -0.15 0.15 -0.15 0.15 -0.15 0.15

$$$$
