
     RDKit          3D

 17 18  0  0  0  0  0  0  0  0999 V2000
  -16.7780   17.2680   26.0680 Br  0  0  0  0  0  0  0  0  0  0  0  0
  -17.8040   15.6860   26.2090 C   0  0  0  0  0  0  0  0  0  0  0  0
  -17.5230   14.6000   25.3830 C   0  0  0  0  0  0  0  0  0  0  0  0
  -16.7420   14.6400   24.6700 H   0  0  0  0  0  0  0  0  0  0  0  0
  -18.3050   13.4620   25.5230 C   0  0  0  0  0  0  0  0  0  0  0  0
  -18.2090   12.2730   24.8150 N   0  0  0  0  0  0  0  0  0  0  0  0
  -17.5410   12.0430   24.0700 H   0  0  0  0  0  0  0  0  0  0  0  0
  -19.1430   11.3830   25.2270 C   0  0  0  0  0  0  0  0  0  0  0  0
  -19.2170   10.2860   24.7260 O   0  0  0  0  0  0  0  0  0  0  0  0
  -19.9770   12.0160   26.3390 C   0  0  0  0  0  0  0  0  0  0  0  0
  -21.0210   12.0860   26.0260 H   0  0  0  0  0  0  0  0  0  0  0  0
  -19.8600   11.4440   27.2620 H   0  0  0  0  0  0  0  0  0  0  0  0
  -19.3350   13.3650   26.4380 C   0  0  0  0  0  0  0  0  0  0  0  0
  -19.6140   14.4480   27.2640 C   0  0  0  0  0  0  0  0  0  0  0  0
  -20.4000   14.3960   27.9740 H   0  0  0  0  0  0  0  0  0  0  0  0
  -18.8450   15.6100   27.1460 C   0  0  0  0  0  0  0  0  0  0  0  0
  -19.0490   16.4410   27.7700 H   0  0  0  0  0  0  0  0  0  0  0  0
  1  2  1  0
  2  3  2  0
  2 16  1  0
  3  4  1  0
  3  5  1  0
  5  6  1  0
  5 13  2  0
  6  7  1  0
  6  8  1  0
  8  9  2  0
  8 10  1  0
 10 11  1  0
 10 12  1  0
 10 13  1  0
 13 14  1  0
 14 15  1  0
 14 16  2  0
 16 17  1  0
M  END
>  <EnInt_ele>  (1) 
2.839938

>  <EnInt_vdw>  (1) 
4.411765

>  <EnInt_tot>  (1) 
7.251702

>  <Charges>  (1) 
-0.11 0.11 -0.15 0.15 0.12 -0.55 0.37 0.57 -0.57 0.21 0.00 0.00 -0.14 -0.15 0.15 -0.15 0.15

$$$$
