
     RDKit          3D

 19 19  0  0  0  0  0  0  0  0999 V2000
  -19.1060    9.9640   24.9230 Br  0  0  0  0  0  0  0  0  0  0  0  0
  -18.8350   11.7670   25.3370 C   0  0  0  0  0  0  0  0  0  0  0  0
  -19.0400   12.7380   24.4050 C   0  0  0  0  0  0  0  0  0  0  0  0
  -19.3560   12.5040   23.4240 H   0  0  0  0  0  0  0  0  0  0  0  0
  -18.8300   14.1140   24.7230 C   0  0  0  0  0  0  0  0  0  0  0  0
  -18.9800   15.0420   23.9180 O   0  0  0  0  0  0  0  0  0  0  0  0
  -18.4220   14.4270   26.0240 N   0  0  0  0  0  0  0  0  0  0  0  0
  -18.2020   15.8250   26.3980 C   0  0  0  0  0  0  0  0  0  0  0  0
  -18.6340   16.4790   25.6310 H   0  0  0  0  0  0  0  0  0  0  0  0
  -18.7470   16.0560   27.3230 H   0  0  0  0  0  0  0  0  0  0  0  0
  -16.7180   16.1520   26.5630 C   0  0  0  0  0  0  0  0  0  0  0  0
  -16.0910   15.5160   25.9290 H   0  0  0  0  0  0  0  0  0  0  0  0
  -16.4050   15.9960   27.6010 H   0  0  0  0  0  0  0  0  0  0  0  0
  -16.4710   17.5120   26.2290 O   0  0  0  0  0  0  0  0  0  0  0  0
  -16.6900   17.6240   25.2860 H   0  0  0  0  0  0  0  0  0  0  0  0
  -18.2080   13.4340   26.9730 C   0  0  0  0  0  0  0  0  0  0  0  0
  -17.8900   13.7680   27.9310 H   0  0  0  0  0  0  0  0  0  0  0  0
  -18.4080   12.1250   26.6460 C   0  0  0  0  0  0  0  0  0  0  0  0
  -18.2480   11.3610   27.3630 H   0  0  0  0  0  0  0  0  0  0  0  0
  1  2  1  0
  2  3  2  0
  2 18  1  0
  3  4  1  0
  3  5  1  0
  5  6  2  0
  5  7  1  0
  7  8  1  0
  7 16  1  0
  8  9  1  0
  8 10  1  0
  8 11  1  0
 11 12  1  0
 11 13  1  0
 11 14  1  0
 14 15  1  0
 16 17  1  0
 16 18  2  0
 18 19  1  0
M  END
>  <EnInt_ele>  (1) 
-2.273455

>  <EnInt_vdw>  (1) 
29.45865

>  <EnInt_tot>  (1) 
27.1852

>  <Charges>  (1) 
-0.11 0.11 -0.14 0.15 0.62 -0.57 -0.47 0.30 0.00 0.00 0.28 0.00 0.00 -0.68 0.40 -0.04 0.15 -0.15 0.15

$$$$
