
     RDKit          3D

 30 31  0  0  0  0  0  0  0  0999 V2000
  -25.3380   12.5610   29.6230 F   0  0  0  0  0  0  0  0  0  0  0  0
  -24.1520   12.5540   28.9980 C   0  0  0  0  0  0  0  0  0  0  0  0
  -24.1120   12.7960   27.6300 C   0  0  0  0  0  0  0  0  0  0  0  0
  -25.0080   12.9790   27.0950 H   0  0  0  0  0  0  0  0  0  0  0  0
  -22.8820   12.7880   26.9810 C   0  0  0  0  0  0  0  0  0  0  0  0
  -22.8260   12.9500   25.9370 H   0  0  0  0  0  0  0  0  0  0  0  0
  -21.7090   12.5430   27.7090 C   0  0  0  0  0  0  0  0  0  0  0  0
  -20.4800   12.5330   27.0620 N   0  0  0  0  0  0  0  0  0  0  0  0
  -19.9500   11.3270   26.4120 C   0  0  0  0  0  0  0  0  0  0  0  0
  -19.0700   10.9800   26.9690 H   0  0  0  0  0  0  0  0  0  0  0  0
  -20.6760   10.5060   26.3920 H   0  0  0  0  0  0  0  0  0  0  0  0
  -19.5630   11.6500   24.9600 C   0  0  0  0  0  0  0  0  0  0  0  0
  -20.4630   11.8840   24.3790 H   0  0  0  0  0  0  0  0  0  0  0  0
  -19.0990   10.7720   24.4990 H   0  0  0  0  0  0  0  0  0  0  0  0
  -18.6910   12.8280   24.8700 N   0  0  0  0  0  0  0  0  0  0  0  0
  -17.4960   12.7180   24.2140 C   0  0  0  0  0  0  0  0  0  0  0  0
  -17.0180   11.6590   23.8430 O   0  0  0  0  0  0  0  0  0  0  0  0
  -16.8480   13.8590   23.9670 N   0  0  0  0  0  0  0  0  0  0  0  0
  -16.6840   14.4410   24.7960 H   0  0  0  0  0  0  0  0  0  0  0  0
  -16.1270   13.8200   23.2440 H   0  0  0  0  0  0  0  0  0  0  0  0
  -19.2260   14.0250   25.5450 C   0  0  0  0  0  0  0  0  0  0  0  0
  -18.5060   14.8450   25.5480 H   0  0  0  0  0  0  0  0  0  0  0  0
  -20.1060   14.3440   24.9760 H   0  0  0  0  0  0  0  0  0  0  0  0
  -19.6120   13.7160   27.0010 C   0  0  0  0  0  0  0  0  0  0  0  0
  -20.0580   14.6040   27.4620 H   0  0  0  0  0  0  0  0  0  0  0  0
  -18.7020   13.4980   27.5760 H   0  0  0  0  0  0  0  0  0  0  0  0
  -21.7710   12.2960   29.0910 C   0  0  0  0  0  0  0  0  0  0  0  0
  -20.8910   12.1180   29.6470 H   0  0  0  0  0  0  0  0  0  0  0  0
  -23.0030   12.3040   29.7380 C   0  0  0  0  0  0  0  0  0  0  0  0
  -23.0720   12.1240   30.7790 H   0  0  0  0  0  0  0  0  0  0  0  0
  1  2  1  0
  2  3  2  0
  2 29  1  0
  3  4  1  0
  3  5  1  0
  5  6  1  0
  5  7  2  0
  7  8  1  0
  7 27  1  0
  8  9  1  0
  8 24  1  0
  9 10  1  0
  9 11  1  0
  9 12  1  0
 12 13  1  0
 12 14  1  0
 12 15  1  0
 15 16  1  0
 15 21  1  0
 16 17  2  0
 16 18  1  0
 18 19  1  0
 18 20  1  0
 21 22  1  0
 21 23  1  0
 21 24  1  0
 24 25  1  0
 24 26  1  0
 27 28  1  0
 27 29  2  0
 29 30  1  0
M  END
>  <EnInt_ele>  (1) 
-3.716381

>  <EnInt_vdw>  (1) 
-0.5495785

>  <EnInt_tot>  (1) 
-4.265959

>  <Charges>  (1) 
-0.19 0.19 -0.15 0.15 -0.15 0.15 0.10 -0.84 0.37 0.00 0.00 0.30 0.00 0.00 -0.66 0.69 -0.57 -0.80 0.37 0.37 0.30 0.00 0.00 0.37 0.00 0.00 -0.15 0.15 -0.15 0.15

$$$$
