
     RDKit          3D

 16 16  0  0  0  0  0  0  0  0999 V2000
  -23.2760   15.4710   30.7650 O   0  0  0  0  0  0  0  0  0  0  0  0
  -23.7130   14.1240   30.9450 C   0  0  0  0  0  0  0  0  0  0  0  0
  -23.2900   13.7210   31.8730 H   0  0  0  0  0  0  0  0  0  0  0  0
  -24.8060   14.0880   31.0090 H   0  0  0  0  0  0  0  0  0  0  0  0
  -23.2240   13.3320   29.7800 C   0  0  0  0  0  0  0  0  0  0  0  0
  -23.3370   11.6220   29.7670 S   0  0  0  0  0  0  0  0  0  0  0  0
  -22.5950   11.6890   28.2380 C   0  0  0  0  0  0  0  0  0  0  0  0
  -22.3480   10.5580   27.5540 N   0  0  0  0  0  0  0  0  0  0  0  0
  -22.5920    9.6440   27.9140 H   0  0  0  0  0  0  0  0  0  0  0  0
  -21.9060   10.5980   26.6440 H   0  0  0  0  0  0  0  0  0  0  0  0
  -22.2950   12.8740   27.8050 N   0  0  0  0  0  0  0  0  0  0  0  0
  -22.6690   13.8360   28.7200 N   0  0  0  0  0  0  0  0  0  0  0  0
  -23.6820   16.3000   31.8450 C   0  0  0  0  0  0  0  0  0  0  0  0
  -23.3220   17.3150   31.6540 H   0  0  0  0  0  0  0  0  0  0  0  0
  -23.2470   15.9470   32.7850 H   0  0  0  0  0  0  0  0  0  0  0  0
  -24.7730   16.3260   31.9200 H   0  0  0  0  0  0  0  0  0  0  0  0
  1  2  1  0
  1 13  1  0
  2  3  1  0
  2  4  1  0
  2  5  1  0
  5  6  1  0
  5 12  2  0
  6  7  1  0
  7  8  1  0
  7 11  2  0
  8  9  1  0
  8 10  1  0
 11 12  1  0
 13 14  1  0
 13 15  1  0
 13 16  1  0
M  END
>  <EnInt_ele>  (1) 
7.618115

>  <EnInt_vdw>  (1) 
3.147238

>  <EnInt_tot>  (1) 
10.76535

>  <Charges>  (1) 
-0.56 0.46 0.00 0.00 0.20 -0.08 0.46 -0.88 0.40 0.40 -0.34 -0.34 0.28 0.00 0.00 0.00

$$$$
