
     RDKit          3D

 29 30  0  0  0  0  0  0  0  0999 V2000
  -20.5100   13.9720   27.2690 O   0  0  0  0  0  0  0  0  0  0  0  0
  -20.6880   12.9160   26.6920 C   0  0  0  0  0  0  0  0  0  0  0  0
  -21.5310   11.9670   27.2040 N   0  0  0  0  0  0  0  0  0  0  0  0
  -21.6060   11.1050   26.6520 H   0  0  0  0  0  0  0  0  0  0  0  0
  -22.2820   12.0340   28.3700 C   0  0  0  0  0  0  0  0  0  0  0  0
  -22.5200   13.1200   29.1350 C   0  0  0  0  0  0  0  0  0  0  0  0
  -22.2170   14.1280   29.0450 H   0  0  0  0  0  0  0  0  0  0  0  0
  -23.2970   12.6660   30.1500 N   0  0  0  0  0  0  0  0  0  0  0  0
  -23.8340   13.4240   31.2590 C   0  0  0  0  0  0  0  0  0  0  0  0
  -23.2120   13.2140   32.1360 H   0  0  0  0  0  0  0  0  0  0  0  0
  -23.7270   14.4880   31.0190 H   0  0  0  0  0  0  0  0  0  0  0  0
  -25.2880   13.0870   31.5340 C   0  0  0  0  0  0  0  0  0  0  0  0
  -25.6650   13.6820   32.3720 H   0  0  0  0  0  0  0  0  0  0  0  0
  -25.9130   13.2940   30.6590 H   0  0  0  0  0  0  0  0  0  0  0  0
  -25.4080   12.0280   31.7860 H   0  0  0  0  0  0  0  0  0  0  0  0
  -23.5580   11.3290   30.0420 N   0  0  0  0  0  0  0  0  0  0  0  0
  -22.9340   10.9540   28.9550 C   0  0  0  0  0  0  0  0  0  0  0  0
  -22.9390    9.9590   28.5930 H   0  0  0  0  0  0  0  0  0  0  0  0
  -20.0070   12.5080   25.3520 C   0  0  0  0  0  0  0  0  0  0  0  0
  -20.7060   12.5360   24.5020 H   0  0  0  0  0  0  0  0  0  0  0  0
  -18.6740   13.2190   24.9890 C   0  0  0  0  0  0  0  0  0  0  0  0
  -18.0920   13.5610   25.8520 H   0  0  0  0  0  0  0  0  0  0  0  0
  -18.7580   14.0400   24.2700 H   0  0  0  0  0  0  0  0  0  0  0  0
  -18.1900   11.8780   24.4060 C   0  0  0  0  0  0  0  0  0  0  0  0
  -17.1360   11.6400   24.5720 H   0  0  0  0  0  0  0  0  0  0  0  0
  -18.4230   11.7500   23.3430 H   0  0  0  0  0  0  0  0  0  0  0  0
  -19.1920   11.1840   25.3470 C   0  0  0  0  0  0  0  0  0  0  0  0
  -18.7660   10.9100   26.3200 H   0  0  0  0  0  0  0  0  0  0  0  0
  -19.7050   10.3150   24.9280 H   0  0  0  0  0  0  0  0  0  0  0  0
  1  2  2  0
  2  3  1  0
  2 19  1  0
  3  4  1  0
  3  5  1  0
  5  6  2  0
  5 17  1  0
  6  7  1  0
  6  8  1  0
  8  9  1  0
  8 16  1  0
  9 10  1  0
  9 11  1  0
  9 12  1  0
 12 13  1  0
 12 14  1  0
 12 15  1  0
 16 17  2  0
 17 18  1  0
 19 20  1  0
 19 21  1  0
 19 27  1  0
 21 22  1  0
 21 23  1  0
 21 24  1  0
 24 25  1  0
 24 26  1  0
 24 27  1  0
 27 28  1  0
 27 29  1  0
M  END
>  <EnInt_ele>  (1) 
-10.03225

>  <EnInt_vdw>  (1) 
3.78307

>  <EnInt_tot>  (1) 
-6.249179

>  <Charges>  (1) 
-0.57 0.58 -0.49 0.37 0.06 -0.30 0.15 0.31 0.26 0.00 0.00 0.00 0.00 0.00 0.00 -0.71 0.14 0.15 0.05 0.00 0.00 0.00 0.00 0.00 0.00 0.00 0.00 0.00 0.00

$$$$
