
     RDKit          3D

 26 27  0  0  0  0  0  0  0  0999 V2000
  -23.2610   11.8900   30.5960 O   0  0  0  0  0  0  0  0  0  0  0  0
  -23.4230   13.1130   30.6850 C   0  0  0  0  0  0  0  0  0  0  0  0
  -23.4690   13.8920   29.5200 N   0  0  0  0  0  0  0  0  0  0  0  0
  -23.3570   13.2730   28.2020 C   0  0  0  0  0  0  0  0  0  0  0  0
  -23.9120   12.3280   28.2120 H   0  0  0  0  0  0  0  0  0  0  0  0
  -23.8230   13.9190   27.4490 H   0  0  0  0  0  0  0  0  0  0  0  0
  -21.9340   13.0300   27.8770 C   0  0  0  0  0  0  0  0  0  0  0  0
  -21.0840   14.0470   28.0380 O   0  0  0  0  0  0  0  0  0  0  0  0
  -19.8460   13.6730   27.6920 N   0  0  0  0  0  0  0  0  0  0  0  0
  -19.9100   12.4410   27.3200 C   0  0  0  0  0  0  0  0  0  0  0  0
  -18.7050   11.7110   26.8750 C   0  0  0  0  0  0  0  0  0  0  0  0
  -18.9730   10.7560   26.4120 H   0  0  0  0  0  0  0  0  0  0  0  0
  -18.0490   11.5010   27.7270 H   0  0  0  0  0  0  0  0  0  0  0  0
  -18.1420   12.2950   26.1400 H   0  0  0  0  0  0  0  0  0  0  0  0
  -21.2190   11.9920   27.4170 C   0  0  0  0  0  0  0  0  0  0  0  0
  -21.5870   11.0280   27.1760 H   0  0  0  0  0  0  0  0  0  0  0  0
  -23.6260   15.2630   29.5380 N   0  0  0  0  0  0  0  0  0  0  0  0
  -23.7430   15.8890   30.6670 C   0  0  0  0  0  0  0  0  0  0  0  0
  -23.9100   17.3820   30.6620 C   0  0  0  0  0  0  0  0  0  0  0  0
  -24.7770   17.6470   30.0480 H   0  0  0  0  0  0  0  0  0  0  0  0
  -23.0160   17.8430   30.2310 H   0  0  0  0  0  0  0  0  0  0  0  0
  -24.0600   17.7740   31.6710 H   0  0  0  0  0  0  0  0  0  0  0  0
  -23.7140   15.1810   31.9030 C   0  0  0  0  0  0  0  0  0  0  0  0
  -23.8150   15.7210   32.8090 H   0  0  0  0  0  0  0  0  0  0  0  0
  -23.5600   13.8260   31.9140 C   0  0  0  0  0  0  0  0  0  0  0  0
  -23.5340   13.2710   32.8150 H   0  0  0  0  0  0  0  0  0  0  0  0
  1  2  2  0
  2  3  1  0
  2 25  1  0
  3  4  1  0
  3 17  1  0
  4  5  1  0
  4  6  1  0
  4  7  1  0
  7  8  1  0
  7 15  2  0
  8  9  1  0
  9 10  2  0
 10 11  1  0
 10 15  1  0
 11 12  1  0
 11 13  1  0
 11 14  1  0
 15 16  1  0
 17 18  2  0
 18 19  1  0
 18 23  1  0
 19 20  1  0
 19 21  1  0
 19 22  1  0
 23 24  1  0
 23 25  2  0
 25 26  1  0
M  END
>  <EnInt_ele>  (1) 
-9.150468

>  <EnInt_vdw>  (1) 
0.9143494

>  <EnInt_tot>  (1) 
-8.236118

>  <Charges>  (1) 
-0.57 0.62 -0.30 0.48 0.00 0.00 -0.04 -0.02 -0.41 0.11 0.18 0.00 0.00 0.00 -0.15 0.15 -0.51 0.38 0.06 0.00 0.00 0.00 -0.14 0.15 -0.14 0.15

$$$$
