
     RDKit          3D

 29 31  0  0  0  0  0  0  0  0999 V2000
  -14.8000   16.7800   26.3220 O   0  0  0  0  0  0  0  0  0  0  0  0
  -15.5550   17.5570   25.7810 C   0  0  0  0  0  0  0  0  0  0  0  0
  -16.8860   17.2970   25.6590 N   0  0  0  0  0  0  0  0  0  0  0  0
  -17.4450   18.0000   25.1680 H   0  0  0  0  0  0  0  0  0  0  0  0
  -17.6160   16.2150   26.0920 C   0  0  0  0  0  0  0  0  0  0  0  0
  -19.3020   16.0340   25.7150 S   0  0  0  0  0  0  0  0  0  0  0  0
  -19.2840   14.5440   26.5940 C   0  0  0  0  0  0  0  0  0  0  0  0
  -18.0030   14.3150   27.0950 C   0  0  0  0  0  0  0  0  0  0  0  0
  -17.0540   15.2850   26.7970 N   0  0  0  0  0  0  0  0  0  0  0  0
  -17.7660   13.1500   27.8440 C   0  0  0  0  0  0  0  0  0  0  0  0
  -16.7970   12.9710   28.2280 H   0  0  0  0  0  0  0  0  0  0  0  0
  -18.7980   12.2520   28.0750 C   0  0  0  0  0  0  0  0  0  0  0  0
  -18.6150   11.3750   28.6400 H   0  0  0  0  0  0  0  0  0  0  0  0
  -20.0860   12.5100   27.5540 C   0  0  0  0  0  0  0  0  0  0  0  0
  -21.1790   11.6960   27.7150 O   0  0  0  0  0  0  0  0  0  0  0  0
  -22.1060   12.0440   28.7370 C   0  0  0  0  0  0  0  0  0  0  0  0
  -22.5620   13.0200   28.5410 H   0  0  0  0  0  0  0  0  0  0  0  0
  -22.9060   11.2970   28.7300 H   0  0  0  0  0  0  0  0  0  0  0  0
  -21.6340   12.0160   29.7240 H   0  0  0  0  0  0  0  0  0  0  0  0
  -20.3400   13.6500   26.8130 C   0  0  0  0  0  0  0  0  0  0  0  0
  -21.3060   13.8420   26.4250 H   0  0  0  0  0  0  0  0  0  0  0  0
  -15.0970   18.8520   25.2310 C   0  0  0  0  0  0  0  0  0  0  0  0
  -14.6990   18.7780   24.2230 H   0  0  0  0  0  0  0  0  0  0  0  0
  -14.5130   19.9170   26.1290 C   0  0  0  0  0  0  0  0  0  0  0  0
  -14.4590   19.7410   27.1980 H   0  0  0  0  0  0  0  0  0  0  0  0
  -13.7020   20.5200   25.7390 H   0  0  0  0  0  0  0  0  0  0  0  0
  -15.8760   20.1090   25.5330 C   0  0  0  0  0  0  0  0  0  0  0  0
  -15.9880   20.8370   24.7390 H   0  0  0  0  0  0  0  0  0  0  0  0
  -16.7350   20.0370   26.1920 H   0  0  0  0  0  0  0  0  0  0  0  0
  1  2  2  0
  2  3  1  0
  2 22  1  0
  3  4  1  0
  3  5  1  0
  5  6  1  0
  5  9  2  0
  6  7  1  0
  7  8  2  0
  7 20  1  0
  8  9  1  0
  8 10  1  0
 10 11  1  0
 10 12  2  0
 12 13  1  0
 12 14  1  0
 14 15  1  0
 14 20  2  0
 15 16  1  0
 16 17  1  0
 16 18  1  0
 16 19  1  0
 20 21  1  0
 22 23  1  0
 22 24  1  0
 22 27  1  0
 24 25  1  0
 24 26  1  0
 24 27  1  0
 27 28  1  0
 27 29  1  0
M  END
>  <EnInt_ele>  (1) 
17.5081

>  <EnInt_vdw>  (1) 
4.437396

>  <EnInt_tot>  (1) 
21.94549

>  <Charges>  (1) 
-0.57 0.63 -0.49 0.37 0.44 -0.08 0.04 0.23 -0.57 -0.15 0.15 -0.15 0.15 0.08 -0.36 0.28 0.00 0.00 0.00 -0.15 0.15 -0.10 0.10 -0.20 0.10 0.10 -0.20 0.10 0.10

$$$$
