
     RDKit          3D

 29 30  0  0  0  0  0  0  0  0999 V2000
  -16.7190   11.5400   23.9430 O   0  0  0  0  0  0  0  0  0  0  0  0
  -17.4500   12.5060   24.0810 C   0  0  0  0  0  0  0  0  0  0  0  0
  -17.0180   13.7180   23.7250 N   0  0  0  0  0  0  0  0  0  0  0  0
  -16.0860   13.7270   23.2980 H   0  0  0  0  0  0  0  0  0  0  0  0
  -17.7270   14.3650   23.3710 H   0  0  0  0  0  0  0  0  0  0  0  0
  -18.7250   12.4340   24.5780 N   0  0  0  0  0  0  0  0  0  0  0  0
  -19.3410   11.1180   24.7670 C   0  0  0  0  0  0  0  0  0  0  0  0
  -18.6500   10.3100   24.5040 H   0  0  0  0  0  0  0  0  0  0  0  0
  -20.1910   11.0600   24.0760 H   0  0  0  0  0  0  0  0  0  0  0  0
  -19.8230   10.9400   26.2070 C   0  0  0  0  0  0  0  0  0  0  0  0
  -18.9670   10.9530   26.8920 H   0  0  0  0  0  0  0  0  0  0  0  0
  -20.3110    9.9670   26.3180 H   0  0  0  0  0  0  0  0  0  0  0  0
  -20.7040   12.0430   26.6190 N   0  0  0  0  0  0  0  0  0  0  0  0
  -21.9520   11.7750   27.1720 C   0  0  0  0  0  0  0  0  0  0  0  0
  -22.3840   10.6320   27.0180 O   0  0  0  0  0  0  0  0  0  0  0  0
  -22.6980   12.7900   27.8820 C   0  0  0  0  0  0  0  0  0  0  0  0
  -22.0920   13.5720   28.8260 O   0  0  0  0  0  0  0  0  0  0  0  0
  -23.0290   14.3840   29.3620 C   0  0  0  0  0  0  0  0  0  0  0  0
  -22.7640   15.0850   30.1120 H   0  0  0  0  0  0  0  0  0  0  0  0
  -24.2300   14.1280   28.7940 C   0  0  0  0  0  0  0  0  0  0  0  0
  -25.1440   14.6120   29.0220 H   0  0  0  0  0  0  0  0  0  0  0  0
  -24.0280   13.0920   27.8520 C   0  0  0  0  0  0  0  0  0  0  0  0
  -24.7500   12.6250   27.2320 H   0  0  0  0  0  0  0  0  0  0  0  0
  -20.1410   13.3830   26.4010 C   0  0  0  0  0  0  0  0  0  0  0  0
  -20.8870   14.1640   26.5580 H   0  0  0  0  0  0  0  0  0  0  0  0
  -19.3390   13.5140   27.1370 H   0  0  0  0  0  0  0  0  0  0  0  0
  -19.5850   13.5580   24.9760 C   0  0  0  0  0  0  0  0  0  0  0  0
  -19.0580   14.5140   24.9280 H   0  0  0  0  0  0  0  0  0  0  0  0
  -20.4110   13.5910   24.2550 H   0  0  0  0  0  0  0  0  0  0  0  0
  1  2  2  0
  2  3  1  0
  2  6  1  0
  3  4  1  0
  3  5  1  0
  6  7  1  0
  6 27  1  0
  7  8  1  0
  7  9  1  0
  7 10  1  0
 10 11  1  0
 10 12  1  0
 10 13  1  0
 13 14  1  0
 13 24  1  0
 14 15  2  0
 14 16  1  0
 16 17  1  0
 16 22  2  0
 17 18  1  0
 18 19  1  0
 18 20  2  0
 20 21  1  0
 20 22  1  0
 22 23  1  0
 24 25  1  0
 24 26  1  0
 24 27  1  0
 27 28  1  0
 27 29  1  0
M  END
>  <EnInt_ele>  (1) 
-31.08198

>  <EnInt_vdw>  (1) 
3.966714

>  <EnInt_tot>  (1) 
-27.11527

>  <Charges>  (1) 
-0.57 0.69 -0.80 0.37 0.37 -0.66 0.30 0.00 0.00 0.30 0.00 0.00 -0.66 0.71 -0.57 0.06 -0.28 -0.01 0.15 -0.15 0.15 -0.15 0.15 0.30 0.00 0.00 0.30 0.00 0.00

$$$$
