
     RDKit          3D

 32 33  0  0  0  0  0  0  0  0999 V2000
  -21.7580   13.1980   26.4140 O   0  0  0  0  0  0  0  0  0  0  0  0
  -20.8950   12.7240   27.1260 C   0  0  0  0  0  0  0  0  0  0  0  0
  -21.1780   12.3380   28.4060 N   0  0  0  0  0  0  0  0  0  0  0  0
  -20.3730   11.9570   28.9140 H   0  0  0  0  0  0  0  0  0  0  0  0
  -22.3890   12.4040   29.0770 C   0  0  0  0  0  0  0  0  0  0  0  0
  -23.5630   12.8820   28.6140 C   0  0  0  0  0  0  0  0  0  0  0  0
  -23.8360   13.2950   27.6790 H   0  0  0  0  0  0  0  0  0  0  0  0
  -24.4310   12.7300   29.6430 N   0  0  0  0  0  0  0  0  0  0  0  0
  -25.8320   13.0920   29.6800 C   0  0  0  0  0  0  0  0  0  0  0  0
  -26.3480   12.4940   28.9210 H   0  0  0  0  0  0  0  0  0  0  0  0
  -26.2260   12.8050   30.6610 H   0  0  0  0  0  0  0  0  0  0  0  0
  -26.0500   14.5750   29.4380 C   0  0  0  0  0  0  0  0  0  0  0  0
  -25.6730   14.8760   28.4550 H   0  0  0  0  0  0  0  0  0  0  0  0
  -25.5310   15.1780   30.1920 H   0  0  0  0  0  0  0  0  0  0  0  0
  -27.1160   14.8150   29.4840 H   0  0  0  0  0  0  0  0  0  0  0  0
  -23.8410   12.1660   30.7380 N   0  0  0  0  0  0  0  0  0  0  0  0
  -22.5960   11.9730   30.3840 C   0  0  0  0  0  0  0  0  0  0  0  0
  -21.8670   11.5440   31.0210 H   0  0  0  0  0  0  0  0  0  0  0  0
  -19.4580   12.5470   26.6590 C   0  0  0  0  0  0  0  0  0  0  0  0
  -18.8210   12.6340   27.5490 H   0  0  0  0  0  0  0  0  0  0  0  0
  -19.2200   11.1880   25.9880 C   0  0  0  0  0  0  0  0  0  0  0  0
  -18.7370   10.4820   26.6730 H   0  0  0  0  0  0  0  0  0  0  0  0
  -20.1540   10.7220   25.6550 H   0  0  0  0  0  0  0  0  0  0  0  0
  -18.3280   11.4860   24.7910 C   0  0  0  0  0  0  0  0  0  0  0  0
  -17.2780   11.5270   25.1040 H   0  0  0  0  0  0  0  0  0  0  0  0
  -18.4210   10.7300   24.0060 H   0  0  0  0  0  0  0  0  0  0  0  0
  -18.7930   12.8570   24.3340 C   0  0  0  0  0  0  0  0  0  0  0  0
  -19.7300   12.7730   23.7740 H   0  0  0  0  0  0  0  0  0  0  0  0
  -18.0580   13.3530   23.6940 H   0  0  0  0  0  0  0  0  0  0  0  0
  -19.0200   13.6100   25.6400 C   0  0  0  0  0  0  0  0  0  0  0  0
  -19.7350   14.4290   25.5160 H   0  0  0  0  0  0  0  0  0  0  0  0
  -18.0710   14.0540   25.9680 H   0  0  0  0  0  0  0  0  0  0  0  0
  1  2  2  0
  2  3  1  0
  2 19  1  0
  3  4  1  0
  3  5  1  0
  5  6  2  0
  5 17  1  0
  6  7  1  0
  6  8  1  0
  8  9  1  0
  8 16  1  0
  9 10  1  0
  9 11  1  0
  9 12  1  0
 12 13  1  0
 12 14  1  0
 12 15  1  0
 16 17  2  0
 17 18  1  0
 19 20  1  0
 19 21  1  0
 19 30  1  0
 21 22  1  0
 21 23  1  0
 21 24  1  0
 24 25  1  0
 24 26  1  0
 24 27  1  0
 27 28  1  0
 27 29  1  0
 27 30  1  0
 30 31  1  0
 30 32  1  0
M  END
>  <EnInt_ele>  (1) 
-8.956761

>  <EnInt_vdw>  (1) 
6.534057

>  <EnInt_tot>  (1) 
-2.422704

>  <Charges>  (1) 
-0.57 0.57 -0.49 0.37 0.06 -0.30 0.15 0.31 0.26 0.00 0.00 0.00 0.00 0.00 0.00 -0.71 0.14 0.15 0.06 0.00 0.00 0.00 0.00 0.00 0.00 0.00 0.00 0.00 0.00 0.00 0.00 0.00

$$$$
