
     RDKit          3D

 24 24  0  0  0  0  0  0  0  0999 V2000
  -23.7340   11.9340   30.1040 O   0  0  0  0  0  0  0  0  0  0  0  0
  -23.9110   12.7260   29.1880 C   0  0  0  0  0  0  0  0  0  0  0  0
  -22.9900   13.0010   28.2250 O   0  0  0  0  0  0  0  0  0  0  0  0
  -21.8100   12.1900   28.2720 C   0  0  0  0  0  0  0  0  0  0  0  0
  -21.3610   12.2480   29.2700 H   0  0  0  0  0  0  0  0  0  0  0  0
  -22.0680   11.1500   28.0420 H   0  0  0  0  0  0  0  0  0  0  0  0
  -20.8330   12.7160   27.2390 C   0  0  0  0  0  0  0  0  0  0  0  0
  -20.5830   13.7630   27.4420 H   0  0  0  0  0  0  0  0  0  0  0  0
  -21.2760   12.6810   26.2380 H   0  0  0  0  0  0  0  0  0  0  0  0
  -19.9110   12.1270   27.2380 H   0  0  0  0  0  0  0  0  0  0  0  0
  -25.0800   13.4270   29.0350 N   0  0  0  0  0  0  0  0  0  0  0  0
  -26.1950   13.2490   29.9640 C   0  0  0  0  0  0  0  0  0  0  0  0
  -26.9800   12.7240   29.4070 H   0  0  0  0  0  0  0  0  0  0  0  0
  -25.9090   12.6260   30.8170 H   0  0  0  0  0  0  0  0  0  0  0  0
  -26.7140   14.6040   30.4440 C   0  0  0  0  0  0  0  0  0  0  0  0
  -25.9710   15.1150   31.0680 H   0  0  0  0  0  0  0  0  0  0  0  0
  -27.6200   14.4680   31.0430 H   0  0  0  0  0  0  0  0  0  0  0  0
  -27.0480   15.4470   29.3310 O   0  0  0  0  0  0  0  0  0  0  0  0
  -25.8950   15.6870   28.5100 C   0  0  0  0  0  0  0  0  0  0  0  0
  -26.1990   16.3460   27.6910 H   0  0  0  0  0  0  0  0  0  0  0  0
  -25.1390   16.2160   29.1050 H   0  0  0  0  0  0  0  0  0  0  0  0
  -25.3390   14.3770   27.9510 C   0  0  0  0  0  0  0  0  0  0  0  0
  -24.4420   14.5730   27.3560 H   0  0  0  0  0  0  0  0  0  0  0  0
  -26.0820   13.9050   27.2980 H   0  0  0  0  0  0  0  0  0  0  0  0
  1  2  2  0
  2  3  1  0
  2 11  1  0
  3  4  1  0
  4  5  1  0
  4  6  1  0
  4  7  1  0
  7  8  1  0
  7  9  1  0
  7 10  1  0
 11 12  1  0
 11 22  1  0
 12 13  1  0
 12 14  1  0
 12 15  1  0
 15 16  1  0
 15 17  1  0
 15 18  1  0
 18 19  1  0
 19 20  1  0
 19 21  1  0
 19 22  1  0
 22 23  1  0
 22 24  1  0
M  END
>  <EnInt_ele>  (1) 
-18.39225

>  <EnInt_vdw>  (1) 
3.237937

>  <EnInt_tot>  (1) 
-15.15432

>  <Charges>  (1) 
-0.57 0.78 -0.43 0.28 0.00 0.00 0.00 0.00 0.00 0.00 -0.66 0.30 0.00 0.00 0.28 0.00 0.00 -0.56 0.28 0.00 0.00 0.30 0.00 0.00

$$$$
