
     RDKit          3D

 24 24  0  0  0  0  0  0  0  0999 V2000
  -25.1920   13.8520   26.7500 O   0  0  0  0  0  0  0  0  0  0  0  0
  -25.9690   13.4580   26.3150 H   0  0  0  0  0  0  0  0  0  0  0  0
  -24.4750   12.7890   27.3670 C   0  0  0  0  0  0  0  0  0  0  0  0
  -25.1020   12.3560   28.1540 H   0  0  0  0  0  0  0  0  0  0  0  0
  -24.2920   12.0250   26.6050 H   0  0  0  0  0  0  0  0  0  0  0  0
  -23.1350   13.2830   27.9280 C   0  0  0  0  0  0  0  0  0  0  0  0
  -23.2900   13.9550   28.7800 H   0  0  0  0  0  0  0  0  0  0  0  0
  -22.6460   13.8970   27.1610 H   0  0  0  0  0  0  0  0  0  0  0  0
  -22.2340   12.1630   28.2760 N   0  0  0  0  0  0  0  0  0  0  0  0
  -22.7070   11.2920   29.3510 C   0  0  0  0  0  0  0  0  0  0  0  0
  -23.6000   11.6980   29.8420 H   0  0  0  0  0  0  0  0  0  0  0  0
  -21.9410   11.1810   30.1260 H   0  0  0  0  0  0  0  0  0  0  0  0
  -22.9720   10.3050   28.9560 H   0  0  0  0  0  0  0  0  0  0  0  0
  -21.0410   12.0090   27.6110 C   0  0  0  0  0  0  0  0  0  0  0  0
  -21.0030   10.9760   26.7570 N   0  0  0  0  0  0  0  0  0  0  0  0
  -21.8550   10.4060   26.7040 H   0  0  0  0  0  0  0  0  0  0  0  0
  -19.9100   10.6770   25.9940 C   0  0  0  0  0  0  0  0  0  0  0  0
  -20.0080    9.8340   25.3550 H   0  0  0  0  0  0  0  0  0  0  0  0
  -18.7850   11.4620   26.0940 C   0  0  0  0  0  0  0  0  0  0  0  0
  -17.9240   11.2500   25.5110 H   0  0  0  0  0  0  0  0  0  0  0  0
  -18.7700   12.5520   26.9820 C   0  0  0  0  0  0  0  0  0  0  0  0
  -17.8990   13.1560   27.0710 H   0  0  0  0  0  0  0  0  0  0  0  0
  -19.8860   12.8240   27.7380 C   0  0  0  0  0  0  0  0  0  0  0  0
  -19.8800   13.6300   28.4220 H   0  0  0  0  0  0  0  0  0  0  0  0
  1  2  1  0
  1  3  1  0
  3  4  1  0
  3  5  1  0
  3  6  1  0
  6  7  1  0
  6  8  1  0
  6  9  1  0
  9 10  1  0
  9 14  1  0
 10 11  1  0
 10 12  1  0
 10 13  1  0
 14 15  1  0
 14 23  2  0
 15 16  1  0
 15 17  1  0
 17 18  1  0
 17 19  1  0
 19 20  1  0
 19 21  2  0
 21 22  1  0
 21 23  1  0
 23 24  1  0
M  CHG  2  15   1  17  -1
M  END
>  <EnInt_ele>  (1) 
-26.48275

>  <EnInt_vdw>  (1) 
2.666541

>  <EnInt_tot>  (1) 
-23.81621

>  <Charges>  (1) 
-0.68 0.40 0.28 0.00 0.00 0.37 0.00 0.00 -0.84 0.37 0.00 0.00 0.00 0.46 -0.30 0.45 0.65 -0.02 -0.29 0.15 -0.15 0.15 -0.15 0.15

$$$$
