
     RDKit          3D

 23 24  0  0  0  0  0  0  0  0999 V2000
  -22.1620   10.5520   27.1260 O   0  0  0  0  0  0  0  0  0  0  0  0
  -21.7540   11.5360   27.7340 C   0  0  0  0  0  0  0  0  0  0  0  0
  -20.5750   12.1080   27.2840 N   0  0  0  0  0  0  0  0  0  0  0  0
  -19.8250   13.2070   27.8820 C   0  0  0  0  0  0  0  0  0  0  0  0
  -20.4480   14.0910   28.0230 H   0  0  0  0  0  0  0  0  0  0  0  0
  -19.4470   12.8700   28.8520 H   0  0  0  0  0  0  0  0  0  0  0  0
  -18.6930   13.4900   26.9010 C   0  0  0  0  0  0  0  0  0  0  0  0
  -19.0180   14.2300   26.1590 H   0  0  0  0  0  0  0  0  0  0  0  0
  -17.7950   13.8720   27.3930 H   0  0  0  0  0  0  0  0  0  0  0  0
  -18.4760   12.1470   26.2210 C   0  0  0  0  0  0  0  0  0  0  0  0
  -17.8730   11.4970   26.8680 H   0  0  0  0  0  0  0  0  0  0  0  0
  -17.9740   12.2320   25.2530 H   0  0  0  0  0  0  0  0  0  0  0  0
  -19.8890   11.5990   26.1040 C   0  0  0  0  0  0  0  0  0  0  0  0
  -19.9130   10.5070   26.0630 H   0  0  0  0  0  0  0  0  0  0  0  0
  -20.4020   11.9990   25.2220 H   0  0  0  0  0  0  0  0  0  0  0  0
  -22.4240   12.0530   28.9120 C   0  0  0  0  0  0  0  0  0  0  0  0
  -22.8250   13.3490   29.0490 C   0  0  0  0  0  0  0  0  0  0  0  0
  -22.7600   14.1740   28.3870 H   0  0  0  0  0  0  0  0  0  0  0  0
  -23.3650   13.4430   30.2750 N   0  0  0  0  0  0  0  0  0  0  0  0
  -23.7650   14.3090   30.6840 H   0  0  0  0  0  0  0  0  0  0  0  0
  -23.3250   12.2580   30.9440 N   0  0  0  0  0  0  0  0  0  0  0  0
  -22.7490   11.4300   30.1200 C   0  0  0  0  0  0  0  0  0  0  0  0
  -22.5490   10.4180   30.3630 H   0  0  0  0  0  0  0  0  0  0  0  0
  1  2  2  0
  2  3  1  0
  2 16  1  0
  3  4  1  0
  3 13  1  0
  4  5  1  0
  4  6  1  0
  4  7  1  0
  7  8  1  0
  7  9  1  0
  7 10  1  0
 10 11  1  0
 10 12  1  0
 10 13  1  0
 13 14  1  0
 13 15  1  0
 16 17  2  0
 16 22  1  0
 17 18  1  0
 17 19  1  0
 19 20  1  0
 19 21  1  0
 21 22  2  0
 22 23  1  0
M  END
>  <EnInt_ele>  (1) 
-7.662825

>  <EnInt_vdw>  (1) 
6.070475

>  <EnInt_tot>  (1) 
-1.59235

>  <Charges>  (1) 
-0.57 0.72 -0.66 0.30 0.00 0.00 0.00 0.00 0.00 0.00 0.00 0.00 0.30 0.00 0.00 -0.09 -0.30 0.15 0.30 0.27 -0.71 0.14 0.15

$$$$
