
     RDKit          3D

 35 37  0  0  0  0  0  0  0  0999 V2000
  -18.7310   10.6560   24.6040 F   0  0  0  0  0  0  0  0  0  0  0  0
  -18.5070   11.8670   25.1340 C   0  0  0  0  0  0  0  0  0  0  0  0
  -18.4420   12.9680   24.2900 C   0  0  0  0  0  0  0  0  0  0  0  0
  -18.5680   12.8450   23.2460 H   0  0  0  0  0  0  0  0  0  0  0  0
  -18.2080   14.2250   24.8390 C   0  0  0  0  0  0  0  0  0  0  0  0
  -18.1580   15.0640   24.2010 H   0  0  0  0  0  0  0  0  0  0  0  0
  -18.0320   14.3640   26.2280 C   0  0  0  0  0  0  0  0  0  0  0  0
  -17.7810   15.6140   26.7800 N   0  0  0  0  0  0  0  0  0  0  0  0
  -18.7830   16.6900   26.7940 C   0  0  0  0  0  0  0  0  0  0  0  0
  -19.6990   16.4360   26.2510 H   0  0  0  0  0  0  0  0  0  0  0  0
  -19.0790   16.8630   27.8360 H   0  0  0  0  0  0  0  0  0  0  0  0
  -18.1850   17.9840   26.2190 C   0  0  0  0  0  0  0  0  0  0  0  0
  -18.9110   18.7960   26.3060 H   0  0  0  0  0  0  0  0  0  0  0  0
  -17.9640   17.8540   25.1530 H   0  0  0  0  0  0  0  0  0  0  0  0
  -16.9160   18.3190   26.8800 N   0  0  0  0  0  0  0  0  0  0  0  0
  -16.6350   19.5250   27.4780 C   0  0  0  0  0  0  0  0  0  0  0  0
  -15.5400   19.6870   27.9830 O   0  0  0  0  0  0  0  0  0  0  0  0
  -17.6610   20.5910   27.4900 C   0  0  0  0  0  0  0  0  0  0  0  0
  -17.9170   20.9690   26.5050 H   0  0  0  0  0  0  0  0  0  0  0  0
  -17.6730   21.6200   28.5990 C   0  0  0  0  0  0  0  0  0  0  0  0
  -16.9310   21.5360   29.3850 H   0  0  0  0  0  0  0  0  0  0  0  0
  -17.9310   22.6390   28.3410 H   0  0  0  0  0  0  0  0  0  0  0  0
  -18.7510   20.5810   28.5370 C   0  0  0  0  0  0  0  0  0  0  0  0
  -18.7390   19.8010   29.2910 H   0  0  0  0  0  0  0  0  0  0  0  0
  -19.7430   20.8960   28.2390 H   0  0  0  0  0  0  0  0  0  0  0  0
  -15.9240   17.2370   26.8530 C   0  0  0  0  0  0  0  0  0  0  0  0
  -15.6420   17.0930   25.8030 H   0  0  0  0  0  0  0  0  0  0  0  0
  -15.0170   17.5090   27.4010 H   0  0  0  0  0  0  0  0  0  0  0  0
  -16.4960   15.9280   27.4250 C   0  0  0  0  0  0  0  0  0  0  0  0
  -16.6590   16.0310   28.5040 H   0  0  0  0  0  0  0  0  0  0  0  0
  -15.7480   15.1420   27.2730 H   0  0  0  0  0  0  0  0  0  0  0  0
  -18.1250   13.2360   27.0600 C   0  0  0  0  0  0  0  0  0  0  0  0
  -18.0400   13.3410   28.1090 H   0  0  0  0  0  0  0  0  0  0  0  0
  -18.3560   11.9790   26.5090 C   0  0  0  0  0  0  0  0  0  0  0  0
  -18.4250   11.1200   27.1240 H   0  0  0  0  0  0  0  0  0  0  0  0
  1  2  1  0
  2  3  2  0
  2 34  1  0
  3  4  1  0
  3  5  1  0
  5  6  1  0
  5  7  2  0
  7  8  1  0
  7 32  1  0
  8  9  1  0
  8 29  1  0
  9 10  1  0
  9 11  1  0
  9 12  1  0
 12 13  1  0
 12 14  1  0
 12 15  1  0
 15 16  1  0
 15 26  1  0
 16 17  2  0
 16 18  1  0
 18 19  1  0
 18 20  1  0
 18 23  1  0
 20 21  1  0
 20 22  1  0
 20 23  1  0
 23 24  1  0
 23 25  1  0
 26 27  1  0
 26 28  1  0
 26 29  1  0
 29 30  1  0
 29 31  1  0
 32 33  1  0
 32 34  2  0
 34 35  1  0
M  END
>  <EnInt_ele>  (1) 
-4.443812

>  <EnInt_vdw>  (1) 
-0.8033233

>  <EnInt_tot>  (1) 
-5.247135

>  <Charges>  (1) 
-0.19 0.19 -0.15 0.15 -0.15 0.15 0.10 -0.84 0.37 0.00 0.00 0.30 0.00 0.00 -0.66 0.63 -0.57 -0.10 0.10 -0.20 0.10 0.10 -0.20 0.10 0.10 0.30 0.00 0.00 0.37 0.00 0.00 -0.15 0.15 -0.15 0.15

$$$$
