
     RDKit          3D

 24 24  0  0  0  0  0  0  0  0999 V2000
  -20.6600   14.1140   28.0600 O   0  0  0  0  0  0  0  0  0  0  0  0
  -21.2630   13.0900   27.7630 C   0  0  0  0  0  0  0  0  0  0  0  0
  -20.7220   12.0610   27.0560 O   0  0  0  0  0  0  0  0  0  0  0  0
  -19.4410   12.3370   26.4750 C   0  0  0  0  0  0  0  0  0  0  0  0
  -19.5070   13.2300   25.8440 H   0  0  0  0  0  0  0  0  0  0  0  0
  -18.7040   12.4980   27.2690 H   0  0  0  0  0  0  0  0  0  0  0  0
  -19.0370   11.1430   25.6330 C   0  0  0  0  0  0  0  0  0  0  0  0
  -19.7790   10.9550   24.8490 H   0  0  0  0  0  0  0  0  0  0  0  0
  -18.9860   10.2380   26.2480 H   0  0  0  0  0  0  0  0  0  0  0  0
  -18.0620   11.3080   25.1650 H   0  0  0  0  0  0  0  0  0  0  0  0
  -22.5680   12.8740   28.1220 N   0  0  0  0  0  0  0  0  0  0  0  0
  -23.3110   13.8620   28.9030 C   0  0  0  0  0  0  0  0  0  0  0  0
  -23.4520   13.4270   29.8990 H   0  0  0  0  0  0  0  0  0  0  0  0
  -22.7450   14.7920   29.0140 H   0  0  0  0  0  0  0  0  0  0  0  0
  -24.6700   14.1400   28.2610 C   0  0  0  0  0  0  0  0  0  0  0  0
  -24.5560   14.6460   27.2940 H   0  0  0  0  0  0  0  0  0  0  0  0
  -25.2670   14.7880   28.9110 H   0  0  0  0  0  0  0  0  0  0  0  0
  -25.4030   12.9220   28.0660 O   0  0  0  0  0  0  0  0  0  0  0  0
  -24.6860   12.0290   27.2000 C   0  0  0  0  0  0  0  0  0  0  0  0
  -25.2940   11.1280   27.0720 H   0  0  0  0  0  0  0  0  0  0  0  0
  -24.5730   12.5010   26.2170 H   0  0  0  0  0  0  0  0  0  0  0  0
  -23.3260   11.6630   27.7970 C   0  0  0  0  0  0  0  0  0  0  0  0
  -22.7780   11.0100   27.1110 H   0  0  0  0  0  0  0  0  0  0  0  0
  -23.4650   11.1240   28.7400 H   0  0  0  0  0  0  0  0  0  0  0  0
  1  2  2  0
  2  3  1  0
  2 11  1  0
  3  4  1  0
  4  5  1  0
  4  6  1  0
  4  7  1  0
  7  8  1  0
  7  9  1  0
  7 10  1  0
 11 12  1  0
 11 22  1  0
 12 13  1  0
 12 14  1  0
 12 15  1  0
 15 16  1  0
 15 17  1  0
 15 18  1  0
 18 19  1  0
 19 20  1  0
 19 21  1  0
 19 22  1  0
 22 23  1  0
 22 24  1  0
M  END
>  <EnInt_ele>  (1) 
-17.81016

>  <EnInt_vdw>  (1) 
8.671428

>  <EnInt_tot>  (1) 
-9.138728

>  <Charges>  (1) 
-0.57 0.78 -0.43 0.28 0.00 0.00 0.00 0.00 0.00 0.00 -0.66 0.30 0.00 0.00 0.28 0.00 0.00 -0.56 0.28 0.00 0.00 0.30 0.00 0.00

$$$$
