
     RDKit          3D

 35 37  0  0  0  0  0  0  0  0999 V2000
  -18.7570   10.6360   24.6440 F   0  0  0  0  0  0  0  0  0  0  0  0
  -18.5070   11.8440   25.1690 C   0  0  0  0  0  0  0  0  0  0  0  0
  -18.3500   11.9600   26.5440 C   0  0  0  0  0  0  0  0  0  0  0  0
  -18.4280   11.1020   27.1610 H   0  0  0  0  0  0  0  0  0  0  0  0
  -18.0910   13.2130   27.0910 C   0  0  0  0  0  0  0  0  0  0  0  0
  -17.9720   13.3040   28.1350 H   0  0  0  0  0  0  0  0  0  0  0  0
  -18.0030   14.3400   26.2530 C   0  0  0  0  0  0  0  0  0  0  0  0
  -17.7620   15.5960   26.7940 N   0  0  0  0  0  0  0  0  0  0  0  0
  -18.7740   16.6630   26.8020 C   0  0  0  0  0  0  0  0  0  0  0  0
  -19.6890   16.3960   26.2640 H   0  0  0  0  0  0  0  0  0  0  0  0
  -19.0690   16.8410   27.8440 H   0  0  0  0  0  0  0  0  0  0  0  0
  -18.1900   17.9580   26.2160 C   0  0  0  0  0  0  0  0  0  0  0  0
  -18.9230   18.7640   26.2990 H   0  0  0  0  0  0  0  0  0  0  0  0
  -17.9710   17.8220   25.1500 H   0  0  0  0  0  0  0  0  0  0  0  0
  -16.9220   18.3100   26.8700 N   0  0  0  0  0  0  0  0  0  0  0  0
  -16.6510   19.5230   27.4580 C   0  0  0  0  0  0  0  0  0  0  0  0
  -15.5560   19.7000   27.9590 O   0  0  0  0  0  0  0  0  0  0  0  0
  -17.6880   20.5800   27.4640 C   0  0  0  0  0  0  0  0  0  0  0  0
  -17.9280   20.9680   26.4790 H   0  0  0  0  0  0  0  0  0  0  0  0
  -17.7290   21.5940   28.5860 C   0  0  0  0  0  0  0  0  0  0  0  0
  -17.0010   21.5080   29.3850 H   0  0  0  0  0  0  0  0  0  0  0  0
  -17.9930   22.6140   28.3360 H   0  0  0  0  0  0  0  0  0  0  0  0
  -18.7960   20.5460   28.4910 C   0  0  0  0  0  0  0  0  0  0  0  0
  -18.7910   19.7570   29.2350 H   0  0  0  0  0  0  0  0  0  0  0  0
  -19.7860   20.8570   28.1780 H   0  0  0  0  0  0  0  0  0  0  0  0
  -15.9200   17.2370   26.8490 C   0  0  0  0  0  0  0  0  0  0  0  0
  -15.6400   17.0880   25.8000 H   0  0  0  0  0  0  0  0  0  0  0  0
  -15.0140   17.5220   27.3930 H   0  0  0  0  0  0  0  0  0  0  0  0
  -16.4780   15.9280   27.4340 C   0  0  0  0  0  0  0  0  0  0  0  0
  -16.6390   16.0380   28.5120 H   0  0  0  0  0  0  0  0  0  0  0  0
  -15.7230   15.1480   27.2860 H   0  0  0  0  0  0  0  0  0  0  0  0
  -18.1440   14.1900   24.8640 C   0  0  0  0  0  0  0  0  0  0  0  0
  -18.0320   15.0260   24.2250 H   0  0  0  0  0  0  0  0  0  0  0  0
  -18.4060   12.9370   24.3190 C   0  0  0  0  0  0  0  0  0  0  0  0
  -18.5180   12.8100   23.2740 H   0  0  0  0  0  0  0  0  0  0  0  0
  1  2  1  0
  2  3  2  0
  2 34  1  0
  3  4  1  0
  3  5  1  0
  5  6  1  0
  5  7  2  0
  7  8  1  0
  7 32  1  0
  8  9  1  0
  8 29  1  0
  9 10  1  0
  9 11  1  0
  9 12  1  0
 12 13  1  0
 12 14  1  0
 12 15  1  0
 15 16  1  0
 15 26  1  0
 16 17  2  0
 16 18  1  0
 18 19  1  0
 18 20  1  0
 18 23  1  0
 20 21  1  0
 20 22  1  0
 20 23  1  0
 23 24  1  0
 23 25  1  0
 26 27  1  0
 26 28  1  0
 26 29  1  0
 29 30  1  0
 29 31  1  0
 32 33  1  0
 32 34  2  0
 34 35  1  0
M  END
>  <EnInt_ele>  (1) 
-4.410375

>  <EnInt_vdw>  (1) 
-0.8047736

>  <EnInt_tot>  (1) 
-5.215149

>  <Charges>  (1) 
-0.19 0.19 -0.15 0.15 -0.15 0.15 0.10 -0.84 0.37 0.00 0.00 0.30 0.00 0.00 -0.66 0.63 -0.57 -0.10 0.10 -0.20 0.10 0.10 -0.20 0.10 0.10 0.30 0.00 0.00 0.37 0.00 0.00 -0.15 0.15 -0.15 0.15

$$$$
