
     RDKit          3D

 25 26  0  0  0  0  0  0  0  0999 V2000
  -23.1430   12.5020   26.3090 O   0  0  0  0  0  0  0  0  0  0  0  0
  -22.1850   12.9520   26.9330 C   0  0  0  0  0  0  0  0  0  0  0  0
  -22.3990   13.5500   28.1510 N   0  0  0  0  0  0  0  0  0  0  0  0
  -21.5400   13.8960   28.6000 H   0  0  0  0  0  0  0  0  0  0  0  0
  -23.6050   13.7280   28.8040 C   0  0  0  0  0  0  0  0  0  0  0  0
  -23.6920   14.3950   29.9740 C   0  0  0  0  0  0  0  0  0  0  0  0
  -22.9630   14.8680   30.5750 H   0  0  0  0  0  0  0  0  0  0  0  0
  -25.0100   14.3610   30.2940 N   0  0  0  0  0  0  0  0  0  0  0  0
  -25.6530   14.9270   31.4520 C   0  0  0  0  0  0  0  0  0  0  0  0
  -24.9040   15.4020   32.0900 H   0  0  0  0  0  0  0  0  0  0  0  0
  -26.1530   14.1230   31.9970 H   0  0  0  0  0  0  0  0  0  0  0  0
  -26.3790   15.6710   31.1130 H   0  0  0  0  0  0  0  0  0  0  0  0
  -25.7510   13.6970   29.3680 N   0  0  0  0  0  0  0  0  0  0  0  0
  -24.8900   13.3120   28.4580 C   0  0  0  0  0  0  0  0  0  0  0  0
  -25.1570   12.7640   27.5920 H   0  0  0  0  0  0  0  0  0  0  0  0
  -20.8080   12.9040   26.4840 C   0  0  0  0  0  0  0  0  0  0  0  0
  -19.7990   13.0900   27.2980 N   0  0  0  0  0  0  0  0  0  0  0  0
  -18.6870   12.9820   26.5760 O   0  0  0  0  0  0  0  0  0  0  0  0
  -18.9800   12.7270   25.2970 C   0  0  0  0  0  0  0  0  0  0  0  0
  -17.8500   12.5800   24.3660 C   0  0  0  0  0  0  0  0  0  0  0  0
  -18.2020   12.3820   23.3490 H   0  0  0  0  0  0  0  0  0  0  0  0
  -17.2080   11.7480   24.6720 H   0  0  0  0  0  0  0  0  0  0  0  0
  -17.2470   13.4920   24.3460 H   0  0  0  0  0  0  0  0  0  0  0  0
  -20.3140   12.6710   25.1990 C   0  0  0  0  0  0  0  0  0  0  0  0
  -20.8830   12.4860   24.3250 H   0  0  0  0  0  0  0  0  0  0  0  0
  1  2  2  0
  2  3  1  0
  2 16  1  0
  3  4  1  0
  3  5  1  0
  5  6  2  0
  5 14  1  0
  6  7  1  0
  6  8  1  0
  8  9  1  0
  8 13  1  0
  9 10  1  0
  9 11  1  0
  9 12  1  0
 13 14  2  0
 14 15  1  0
 16 17  2  0
 16 24  1  0
 17 18  1  0
 18 19  1  0
 19 20  1  0
 19 24  2  0
 20 21  1  0
 20 22  1  0
 20 23  1  0
 24 25  1  0
M  END
>  <EnInt_ele>  (1) 
-12.70488

>  <EnInt_vdw>  (1) 
4.031739

>  <EnInt_tot>  (1) 
-8.673143

>  <Charges>  (1) 
-0.57 0.72 -0.49 0.37 0.06 -0.30 0.15 0.31 0.26 0.00 0.00 0.00 -0.71 0.14 0.15 0.20 -0.41 -0.02 -0.04 0.18 0.00 0.00 0.00 -0.15 0.15

$$$$
