
     RDKit          3D

 29 30  0  0  0  0  0  0  0  0999 V2000
  -20.5080   13.9700   27.2630 O   0  0  0  0  0  0  0  0  0  0  0  0
  -20.6880   12.9150   26.6860 C   0  0  0  0  0  0  0  0  0  0  0  0
  -21.5330   11.9680   27.1970 N   0  0  0  0  0  0  0  0  0  0  0  0
  -21.6100   11.1060   26.6440 H   0  0  0  0  0  0  0  0  0  0  0  0
  -22.2860   12.0360   28.3620 C   0  0  0  0  0  0  0  0  0  0  0  0
  -22.5220   13.1220   29.1270 C   0  0  0  0  0  0  0  0  0  0  0  0
  -22.2170   14.1300   29.0380 H   0  0  0  0  0  0  0  0  0  0  0  0
  -23.3010   12.6700   30.1420 N   0  0  0  0  0  0  0  0  0  0  0  0
  -23.8380   13.4290   31.2500 C   0  0  0  0  0  0  0  0  0  0  0  0
  -23.2740   13.1480   32.1480 H   0  0  0  0  0  0  0  0  0  0  0  0
  -23.6470   14.4890   31.0520 H   0  0  0  0  0  0  0  0  0  0  0  0
  -25.3230   13.1860   31.4470 C   0  0  0  0  0  0  0  0  0  0  0  0
  -25.6980   13.7800   32.2860 H   0  0  0  0  0  0  0  0  0  0  0  0
  -25.8890   13.4630   30.5510 H   0  0  0  0  0  0  0  0  0  0  0  0
  -25.5260   12.1310   31.6570 H   0  0  0  0  0  0  0  0  0  0  0  0
  -23.5640   11.3330   30.0330 N   0  0  0  0  0  0  0  0  0  0  0  0
  -22.9400   10.9570   28.9480 C   0  0  0  0  0  0  0  0  0  0  0  0
  -22.9470    9.9620   28.5850 H   0  0  0  0  0  0  0  0  0  0  0  0
  -20.0070   12.5050   25.3470 C   0  0  0  0  0  0  0  0  0  0  0  0
  -20.7050   12.5350   24.4960 H   0  0  0  0  0  0  0  0  0  0  0  0
  -18.6730   13.2140   24.9850 C   0  0  0  0  0  0  0  0  0  0  0  0
  -18.0910   13.5550   25.8480 H   0  0  0  0  0  0  0  0  0  0  0  0
  -18.7540   14.0350   24.2660 H   0  0  0  0  0  0  0  0  0  0  0  0
  -18.1900   11.8730   24.4020 C   0  0  0  0  0  0  0  0  0  0  0  0
  -17.1380   11.6320   24.5690 H   0  0  0  0  0  0  0  0  0  0  0  0
  -18.4230   11.7450   23.3390 H   0  0  0  0  0  0  0  0  0  0  0  0
  -19.1950   11.1800   25.3420 C   0  0  0  0  0  0  0  0  0  0  0  0
  -18.7700   10.9050   26.3150 H   0  0  0  0  0  0  0  0  0  0  0  0
  -19.7090   10.3120   24.9220 H   0  0  0  0  0  0  0  0  0  0  0  0
  1  2  2  0
  2  3  1  0
  2 19  1  0
  3  4  1  0
  3  5  1  0
  5  6  2  0
  5 17  1  0
  6  7  1  0
  6  8  1  0
  8  9  1  0
  8 16  1  0
  9 10  1  0
  9 11  1  0
  9 12  1  0
 12 13  1  0
 12 14  1  0
 12 15  1  0
 16 17  2  0
 17 18  1  0
 19 20  1  0
 19 21  1  0
 19 27  1  0
 21 22  1  0
 21 23  1  0
 21 24  1  0
 24 25  1  0
 24 26  1  0
 24 27  1  0
 27 28  1  0
 27 29  1  0
M  END
>  <EnInt_ele>  (1) 
-10.0295

>  <EnInt_vdw>  (1) 
3.771237

>  <EnInt_tot>  (1) 
-6.258265

>  <Charges>  (1) 
-0.57 0.58 -0.49 0.37 0.06 -0.30 0.15 0.31 0.26 0.00 0.00 0.00 0.00 0.00 0.00 -0.71 0.14 0.15 0.05 0.00 0.00 0.00 0.00 0.00 0.00 0.00 0.00 0.00 0.00

$$$$
