
     RDKit          3D

 29 30  0  0  1  0  0  0  0  0999 V2000
  -19.2860   16.7720   27.4680 O   0  0  0  0  0  0  0  0  0  0  0  0
  -18.6940   16.3590   26.4880 C   0  0  0  0  0  0  0  0  0  0  0  0
  -17.6230   16.9960   26.0550 N   0  0  0  0  0  0  0  0  0  0  0  0
  -17.3600   17.8260   26.5610 H   0  0  0  0  0  0  0  0  0  0  0  0
  -17.1340   16.7120   25.2250 H   0  0  0  0  0  0  0  0  0  0  0  0
  -19.1240   15.1610   25.6830 C   0  0  0  0  0  0  0  0  0  0  0  0
  -20.1940   15.0180   25.8820 H   0  0  0  0  0  0  0  0  0  0  0  0
  -19.0060   15.3760   24.6160 H   0  0  0  0  0  0  0  0  0  0  0  0
  -18.3670   13.8990   26.0750 C   0  0  0  0  0  0  0  0  0  0  0  0
  -17.9510   14.0270   27.0820 H   0  0  0  0  0  0  0  0  0  0  0  0
  -17.5160   13.6960   25.4180 H   0  0  0  0  0  0  0  0  0  0  0  0
  -19.2420   12.7130   26.1220 N   0  0  0  0  0  0  0  0  0  0  0  0
  -19.1400   11.6450   25.3390 C   0  0  0  0  0  0  0  0  0  0  0  0
  -18.1500   11.4120   24.2500 C   0  0  0  0  0  0  0  0  0  0  0  0
  -18.3360   10.4210   23.8340 H   0  0  0  0  0  0  0  0  0  0  0  0
  -17.1540   11.4690   24.6870 H   0  0  0  0  0  0  0  0  0  0  0  0
  -18.3080   12.1840   23.4960 H   0  0  0  0  0  0  0  0  0  0  0  0
  -20.0830   10.7970   25.6820 N   0  0  0  0  0  0  0  0  0  0  0  0
  -20.2230    9.8820   25.2230 H   0  0  0  0  0  0  0  0  0  0  0  0
  -20.8630   11.3060   26.6880 C   0  0  0  0  0  0  0  0  0  0  0  0
  -20.3430   12.5450   26.9770 C   0  0  0  0  0  0  0  0  0  0  0  0
  -20.9210   13.3640   27.9530 C   0  0  0  0  0  0  0  0  0  0  0  0
  -20.5330   14.3260   28.1670 H   0  0  0  0  0  0  0  0  0  0  0  0
  -22.0290   12.8700   28.6330 C   0  0  0  0  0  0  0  0  0  0  0  0
  -22.4930   13.4610   29.3840 H   0  0  0  0  0  0  0  0  0  0  0  0
  -22.5540   11.5870   28.3380 C   0  0  0  0  0  0  0  0  0  0  0  0
  -23.4010   11.2370   28.8750 H   0  0  0  0  0  0  0  0  0  0  0  0
  -21.9740   10.7890   27.3570 C   0  0  0  0  0  0  0  0  0  0  0  0
  -22.3600    9.8300   27.1240 H   0  0  0  0  0  0  0  0  0  0  0  0
  1  2  2  0
  2  3  1  0
  2  6  1  0
  3  4  1  0
  3  5  1  0
  6  7  1  0
  6  8  1  0
  6  9  1  0
  9 10  1  0
  9 11  1  0
  9 12  1  0
 12 13  1  0
 12 21  1  0
 13 14  1  0
 13 18  1  0
 14 15  1  0
 14 16  1  0
 14 17  1  0
 18 19  1  0
 18 20  1  0
 20 21  2  0
 20 28  1  0
 21 22  1  0
 22 23  1  0
 22 24  2  0
 24 25  1  0
 24 26  1  0
 26 27  1  0
 26 28  2  0
 28 29  1  0
M  CHG  2  12   1  13  -1
M  END
>  <EnInt_ele>  (1) 
-18.4129

>  <EnInt_vdw>  (1) 
1.844964

>  <EnInt_tot>  (1) 
-16.56794

>  <Charges>  (1) 
-0.57 0.57 -0.80 0.37 0.37 0.06 0.00 0.00 0.50 0.00 0.00 -0.36 0.76 0.00 0.00 0.00 0.00 -0.76 0.40 0.10 0.36 -0.15 0.15 -0.15 0.15 -0.15 0.15 -0.15 0.15

$$$$
