
     RDKit          3D

 20 20  0  0  0  0  0  0  0  0999 V2000
  -18.1170   12.1420   23.9860 S   0  0  0  0  0  0  0  0  0  0  0  0
  -17.1160   11.2210   24.4750 O   0  0  0  0  0  0  0  0  0  0  0  0
  -19.0630   11.7720   22.9550 O   0  0  0  0  0  0  0  0  0  0  0  0
  -17.3040   13.5150   23.4420 N   0  0  0  0  0  0  0  0  0  0  0  0
  -16.6400   13.8710   24.1340 H   0  0  0  0  0  0  0  0  0  0  0  0
  -16.9020   13.3850   22.5100 H   0  0  0  0  0  0  0  0  0  0  0  0
  -19.0110   12.7820   25.3610 C   0  0  0  0  0  0  0  0  0  0  0  0
  -18.7290   14.0600   25.8530 C   0  0  0  0  0  0  0  0  0  0  0  0
  -17.9620   14.6490   25.4220 H   0  0  0  0  0  0  0  0  0  0  0  0
  -19.4750   14.5510   26.9140 C   0  0  0  0  0  0  0  0  0  0  0  0
  -19.1980   15.7760   27.3850 F   0  0  0  0  0  0  0  0  0  0  0  0
  -20.4990   13.8250   27.5030 C   0  0  0  0  0  0  0  0  0  0  0  0
  -21.0470   14.2400   28.3110 H   0  0  0  0  0  0  0  0  0  0  0  0
  -20.7940   12.5560   27.0120 C   0  0  0  0  0  0  0  0  0  0  0  0
  -21.9270   11.7620   27.5930 C   0  0  0  0  0  0  0  0  0  0  0  0
  -22.0710   12.0020   28.6520 H   0  0  0  0  0  0  0  0  0  0  0  0
  -21.7250   10.6880   27.5290 H   0  0  0  0  0  0  0  0  0  0  0  0
  -22.8530   11.9800   27.0520 H   0  0  0  0  0  0  0  0  0  0  0  0
  -20.0530   12.0460   25.9410 C   0  0  0  0  0  0  0  0  0  0  0  0
  -20.2830   11.0860   25.5510 H   0  0  0  0  0  0  0  0  0  0  0  0
  1  2  2  0
  1  3  2  0
  1  4  1  0
  1  7  1  0
  4  5  1  0
  4  6  1  0
  7  8  2  0
  7 19  1  0
  8  9  1  0
  8 10  1  0
 10 11  1  0
 10 12  2  0
 12 13  1  0
 12 14  1  0
 14 15  1  0
 14 19  2  0
 15 16  1  0
 15 17  1  0
 15 18  1  0
 19 20  1  0
M  END
>  <EnInt_ele>  (1) 
17.47917

>  <EnInt_vdw>  (1) 
-2.354552

>  <EnInt_tot>  (1) 
15.12462

>  <Charges>  (1) 
1.45 -0.65 -0.65 -0.98 0.42 0.42 -0.01 -0.15 0.15 0.19 -0.19 -0.15 0.15 -0.14 0.14 0.00 0.00 0.00 -0.15 0.15

$$$$
