
     RDKit          3D

 19 19  0  0  0  0  0  0  0  0999 V2000
  -21.1740   12.2310   24.5180 O   0  0  0  0  0  0  0  0  0  0  0  0
  -20.2370   12.6820   25.1720 C   0  0  0  0  0  0  0  0  0  0  0  0
  -20.4010   12.7220   26.5560 N   0  0  0  0  0  0  0  0  0  0  0  0
  -21.7270   12.5480   27.1340 C   0  0  0  0  0  0  0  0  0  0  0  0
  -21.9030   13.3470   27.8610 H   0  0  0  0  0  0  0  0  0  0  0  0
  -21.7610   11.5790   27.6420 H   0  0  0  0  0  0  0  0  0  0  0  0
  -22.5180   12.5840   26.3810 H   0  0  0  0  0  0  0  0  0  0  0  0
  -19.3170   12.9010   27.5120 C   0  0  0  0  0  0  0  0  0  0  0  0
  -19.4690   12.2220   28.3580 H   0  0  0  0  0  0  0  0  0  0  0  0
  -19.3340   13.9340   27.8710 H   0  0  0  0  0  0  0  0  0  0  0  0
  -18.3450   12.6730   27.0710 H   0  0  0  0  0  0  0  0  0  0  0  0
  -19.0110   13.1480   24.5500 C   0  0  0  0  0  0  0  0  0  0  0  0
  -18.0050   12.3310   24.1290 C   0  0  0  0  0  0  0  0  0  0  0  0
  -17.8920   11.2790   24.1810 H   0  0  0  0  0  0  0  0  0  0  0  0
  -17.0800   13.1330   23.5760 N   0  0  0  0  0  0  0  0  0  0  0  0
  -16.1860   12.8110   23.1600 H   0  0  0  0  0  0  0  0  0  0  0  0
  -17.4500   14.4420   23.6130 N   0  0  0  0  0  0  0  0  0  0  0  0
  -18.6170   14.4400   24.1920 C   0  0  0  0  0  0  0  0  0  0  0  0
  -19.1820   15.3240   24.3540 H   0  0  0  0  0  0  0  0  0  0  0  0
  1  2  2  0
  2  3  1  0
  2 12  1  0
  3  4  1  0
  3  8  1  0
  4  5  1  0
  4  6  1  0
  4  7  1  0
  8  9  1  0
  8 10  1  0
  8 11  1  0
 12 13  2  0
 12 18  1  0
 13 14  1  0
 13 15  1  0
 15 16  1  0
 15 17  1  0
 17 18  2  0
 18 19  1  0
M  END
>  <EnInt_ele>  (1) 
-18.88512

>  <EnInt_vdw>  (1) 
5.798512

>  <EnInt_tot>  (1) 
-13.08661

>  <Charges>  (1) 
-0.57 0.72 -0.66 0.30 0.00 0.00 0.00 0.30 0.00 0.00 0.00 -0.09 -0.30 0.15 0.30 0.27 -0.71 0.14 0.15

$$$$
