
     RDKit          3D

 20 20  0  0  0  0  0  0  0  0999 V2000
  -19.6980   15.1680   27.5000 O   0  0  0  0  0  0  0  0  0  0  0  0
  -19.1900   14.4360   26.6280 C   0  0  0  0  0  0  0  0  0  0  0  0
  -19.4550   13.0540   26.6600 N   0  0  0  0  0  0  0  0  0  0  0  0
  -20.3160   12.5150   27.7090 C   0  0  0  0  0  0  0  0  0  0  0  0
  -21.1760   12.0160   27.2520 H   0  0  0  0  0  0  0  0  0  0  0  0
  -20.6960   13.2940   28.3760 H   0  0  0  0  0  0  0  0  0  0  0  0
  -19.7440   11.8030   28.3140 H   0  0  0  0  0  0  0  0  0  0  0  0
  -18.8910   12.1860   25.6980 C   0  0  0  0  0  0  0  0  0  0  0  0
  -19.1690   10.7100   25.7710 C   0  0  0  0  0  0  0  0  0  0  0  0
  -18.8080   10.2940   26.7180 H   0  0  0  0  0  0  0  0  0  0  0  0
  -18.6690   10.1610   24.9660 H   0  0  0  0  0  0  0  0  0  0  0  0
  -20.2410   10.5100   25.6800 H   0  0  0  0  0  0  0  0  0  0  0  0
  -18.1080   12.7010   24.7020 C   0  0  0  0  0  0  0  0  0  0  0  0
  -17.6870   12.0570   23.9740 H   0  0  0  0  0  0  0  0  0  0  0  0
  -17.8300   14.0920   24.6160 C   0  0  0  0  0  0  0  0  0  0  0  0
  -17.2140   14.4610   23.8370 H   0  0  0  0  0  0  0  0  0  0  0  0
  -18.3460   14.9380   25.5510 C   0  0  0  0  0  0  0  0  0  0  0  0
  -18.1130   16.2910   25.5390 N   0  0  0  0  0  0  0  0  0  0  0  0
  -17.5400   16.7210   24.8280 H   0  0  0  0  0  0  0  0  0  0  0  0
  -18.5410   16.8470   26.2760 H   0  0  0  0  0  0  0  0  0  0  0  0
  1  2  2  0
  2  3  1  0
  2 17  1  0
  3  4  1  0
  3  8  1  0
  4  5  1  0
  4  6  1  0
  4  7  1  0
  8  9  1  0
  8 13  2  0
  9 10  1  0
  9 11  1  0
  9 12  1  0
 13 14  1  0
 13 15  1  0
 15 16  1  0
 15 17  2  0
 17 18  1  0
 18 19  1  0
 18 20  1  0
M  END
>  <EnInt_ele>  (1) 
-6.741939

>  <EnInt_vdw>  (1) 
10.1171

>  <EnInt_tot>  (1) 
3.375158

>  <Charges>  (1) 
-0.57 0.62 -0.47 0.30 0.00 0.00 0.00 -0.03 0.14 0.00 0.00 0.00 -0.15 0.15 -0.15 0.15 0.11 -0.90 0.40 0.40

$$$$
