
     RDKit          3D

 28 29  0  0  0  0  0  0  0  0999 V2000
  -23.0320   12.4420   32.3600 O   0  0  0  0  0  0  0  0  0  0  0  0
  -23.2960   11.4840   31.6530 C   0  0  0  0  0  0  0  0  0  0  0  0
  -23.7450   10.3740   32.2060 N   0  0  0  0  0  0  0  0  0  0  0  0
  -23.8470   10.3800   33.2070 H   0  0  0  0  0  0  0  0  0  0  0  0
  -23.9660    9.5670   31.6510 H   0  0  0  0  0  0  0  0  0  0  0  0
  -23.1480   11.4650   30.1550 C   0  0  0  0  0  0  0  0  0  0  0  0
  -22.4190   10.6920   29.8850 H   0  0  0  0  0  0  0  0  0  0  0  0
  -24.1110   11.1760   29.7180 H   0  0  0  0  0  0  0  0  0  0  0  0
  -22.7050   12.8250   29.6330 C   0  0  0  0  0  0  0  0  0  0  0  0
  -21.8160   13.1820   30.1640 H   0  0  0  0  0  0  0  0  0  0  0  0
  -23.4820   13.5840   29.7860 H   0  0  0  0  0  0  0  0  0  0  0  0
  -22.4060   12.7830   28.2140 N   0  0  0  0  0  0  0  0  0  0  0  0
  -23.2950   12.9450   27.1770 C   0  0  0  0  0  0  0  0  0  0  0  0
  -24.7490   13.1860   27.3770 C   0  0  0  0  0  0  0  0  0  0  0  0
  -25.2390   13.3800   26.4180 H   0  0  0  0  0  0  0  0  0  0  0  0
  -24.9160   14.0550   28.0210 H   0  0  0  0  0  0  0  0  0  0  0  0
  -25.2260   12.3110   27.8280 H   0  0  0  0  0  0  0  0  0  0  0  0
  -22.7120   12.8620   26.0280 N   0  0  0  0  0  0  0  0  0  0  0  0
  -21.3810   12.6360   26.3000 C   0  0  0  0  0  0  0  0  0  0  0  0
  -21.1750   12.5810   27.6640 C   0  0  0  0  0  0  0  0  0  0  0  0
  -19.9130   12.3610   28.2350 C   0  0  0  0  0  0  0  0  0  0  0  0
  -19.7820   12.3200   29.2850 H   0  0  0  0  0  0  0  0  0  0  0  0
  -18.8380   12.1970   27.3740 C   0  0  0  0  0  0  0  0  0  0  0  0
  -17.8680   12.0290   27.7630 H   0  0  0  0  0  0  0  0  0  0  0  0
  -19.0280   12.2520   25.9740 C   0  0  0  0  0  0  0  0  0  0  0  0
  -18.1950   12.1240   25.3300 H   0  0  0  0  0  0  0  0  0  0  0  0
  -20.2890   12.4690   25.4370 C   0  0  0  0  0  0  0  0  0  0  0  0
  -20.4420   12.5100   24.3920 H   0  0  0  0  0  0  0  0  0  0  0  0
  1  2  2  0
  2  3  1  0
  2  6  1  0
  3  4  1  0
  3  5  1  0
  6  7  1  0
  6  8  1  0
  6  9  1  0
  9 10  1  0
  9 11  1  0
  9 12  1  0
 12 13  1  0
 12 20  1  0
 13 14  1  0
 13 18  2  0
 14 15  1  0
 14 16  1  0
 14 17  1  0
 18 19  1  0
 19 20  2  0
 19 27  1  0
 20 21  1  0
 21 22  1  0
 21 23  2  0
 23 24  1  0
 23 25  1  0
 25 26  1  0
 25 27  2  0
 27 28  1  0
M  END
>  <EnInt_ele>  (1) 
-16.42822

>  <EnInt_vdw>  (1) 
1.228732

>  <EnInt_tot>  (1) 
-15.19949

>  <Charges>  (1) 
-0.57 0.57 -0.80 0.37 0.37 0.06 0.00 0.00 0.26 0.00 0.00 0.05 0.01 0.18 0.00 0.00 0.00 -0.57 0.23 -0.15 -0.15 0.15 -0.15 0.15 -0.15 0.15 -0.15 0.15

$$$$
