
     RDKit          3D

 26 27  0  0  0  0  0  0  0  0999 V2000
  -23.6190   11.7370   26.6010 O   0  0  0  0  0  0  0  0  0  0  0  0
  -24.0040   12.6210   27.3780 C   0  0  0  0  0  0  0  0  0  0  0  0
  -23.3430   12.8040   28.6000 N   0  0  0  0  0  0  0  0  0  0  0  0
  -22.1880   11.9850   28.9570 C   0  0  0  0  0  0  0  0  0  0  0  0
  -22.0630   12.0140   30.0460 H   0  0  0  0  0  0  0  0  0  0  0  0
  -22.3720   10.9430   28.6750 H   0  0  0  0  0  0  0  0  0  0  0  0
  -20.9750   12.5040   28.2860 C   0  0  0  0  0  0  0  0  0  0  0  0
  -19.7950   12.2110   28.8370 O   0  0  0  0  0  0  0  0  0  0  0  0
  -18.8030   12.7600   28.1240 N   0  0  0  0  0  0  0  0  0  0  0  0
  -19.3460   13.3890   27.1390 C   0  0  0  0  0  0  0  0  0  0  0  0
  -18.5260   14.1100   26.1440 C   0  0  0  0  0  0  0  0  0  0  0  0
  -19.1480   14.7440   25.5050 H   0  0  0  0  0  0  0  0  0  0  0  0
  -17.9940   13.4010   25.5010 H   0  0  0  0  0  0  0  0  0  0  0  0
  -17.7880   14.7520   26.6360 H   0  0  0  0  0  0  0  0  0  0  0  0
  -20.7260   13.2570   27.2040 C   0  0  0  0  0  0  0  0  0  0  0  0
  -21.4430   13.6660   26.5400 H   0  0  0  0  0  0  0  0  0  0  0  0
  -23.7250   13.7540   29.5250 N   0  0  0  0  0  0  0  0  0  0  0  0
  -24.7350   14.5300   29.2820 C   0  0  0  0  0  0  0  0  0  0  0  0
  -25.1340   15.5560   30.3060 C   0  0  0  0  0  0  0  0  0  0  0  0
  -24.2750   16.1960   30.5300 H   0  0  0  0  0  0  0  0  0  0  0  0
  -25.4470   15.0460   31.2220 H   0  0  0  0  0  0  0  0  0  0  0  0
  -25.9560   16.1800   29.9490 H   0  0  0  0  0  0  0  0  0  0  0  0
  -25.4650   14.4210   28.0630 C   0  0  0  0  0  0  0  0  0  0  0  0
  -26.2830   15.0720   27.8920 H   0  0  0  0  0  0  0  0  0  0  0  0
  -25.1080   13.4910   27.1310 C   0  0  0  0  0  0  0  0  0  0  0  0
  -25.6300   13.3840   26.2170 H   0  0  0  0  0  0  0  0  0  0  0  0
  1  2  2  0
  2  3  1  0
  2 25  1  0
  3  4  1  0
  3 17  1  0
  4  5  1  0
  4  6  1  0
  4  7  1  0
  7  8  1  0
  7 15  2  0
  8  9  1  0
  9 10  2  0
 10 11  1  0
 10 15  1  0
 11 12  1  0
 11 13  1  0
 11 14  1  0
 15 16  1  0
 17 18  2  0
 18 19  1  0
 18 23  1  0
 19 20  1  0
 19 21  1  0
 19 22  1  0
 23 24  1  0
 23 25  2  0
 25 26  1  0
M  END
>  <EnInt_ele>  (1) 
-14.15735

>  <EnInt_vdw>  (1) 
0.4872415

>  <EnInt_tot>  (1) 
-13.67011

>  <Charges>  (1) 
-0.57 0.62 -0.30 0.48 0.00 0.00 -0.04 -0.02 -0.41 0.11 0.18 0.00 0.00 0.00 -0.15 0.15 -0.51 0.38 0.06 0.00 0.00 0.00 -0.14 0.15 -0.14 0.15

$$$$
