
     RDKit          3D

 19 19  0  0  0  0  0  0  0  0999 V2000
  -18.2280   11.9560   24.5220 Br  0  0  0  0  0  0  0  0  0  0  0  0
  -19.3470   12.4380   25.9360 C   0  0  0  0  0  0  0  0  0  0  0  0
  -20.2730   11.6780   26.5600 C   0  0  0  0  0  0  0  0  0  0  0  0
  -20.5860   10.6780   26.4050 H   0  0  0  0  0  0  0  0  0  0  0  0
  -20.8190   12.4700   27.5090 N   0  0  0  0  0  0  0  0  0  0  0  0
  -21.8560   12.1360   28.4660 C   0  0  0  0  0  0  0  0  0  0  0  0
  -21.8880   11.0440   28.5420 H   0  0  0  0  0  0  0  0  0  0  0  0
  -21.5440   12.5450   29.4320 H   0  0  0  0  0  0  0  0  0  0  0  0
  -23.2080   12.7010   28.0550 C   0  0  0  0  0  0  0  0  0  0  0  0
  -23.1500   13.7800   27.8710 H   0  0  0  0  0  0  0  0  0  0  0  0
  -23.9330   12.5150   28.8550 H   0  0  0  0  0  0  0  0  0  0  0  0
  -23.6560   12.0290   26.8740 O   0  0  0  0  0  0  0  0  0  0  0  0
  -25.0060   12.3540   26.5650 C   0  0  0  0  0  0  0  0  0  0  0  0
  -25.2950   11.8030   25.6660 H   0  0  0  0  0  0  0  0  0  0  0  0
  -25.1050   13.4250   26.3660 H   0  0  0  0  0  0  0  0  0  0  0  0
  -25.6680   12.0590   27.3850 H   0  0  0  0  0  0  0  0  0  0  0  0
  -20.2720   13.7170   27.5070 N   0  0  0  0  0  0  0  0  0  0  0  0
  -19.3790   13.6850   26.5510 C   0  0  0  0  0  0  0  0  0  0  0  0
  -18.7700   14.5120   26.2920 H   0  0  0  0  0  0  0  0  0  0  0  0
  1  2  1  0
  2  3  2  0
  2 18  1  0
  3  4  1  0
  3  5  1  0
  5  6  1  0
  5 17  1  0
  6  7  1  0
  6  8  1  0
  6  9  1  0
  9 10  1  0
  9 11  1  0
  9 12  1  0
 12 13  1  0
 13 14  1  0
 13 15  1  0
 13 16  1  0
 17 18  2  0
 18 19  1  0
M  END
>  <EnInt_ele>  (1) 
-0.2993772

>  <EnInt_vdw>  (1) 
-2.644551

>  <EnInt_tot>  (1) 
-2.943928

>  <Charges>  (1) 
-0.06 0.06 -0.30 0.15 0.31 0.26 0.00 0.00 0.28 0.00 0.00 -0.56 0.28 0.00 0.00 0.00 -0.71 0.14 0.15

$$$$
