
     RDKit          3D

 16 16  0  0  0  0  0  0  0  0999 V2000
  -16.6390   17.9530   27.3120 Br  0  0  0  0  0  0  0  0  0  0  0  0
  -17.5090   16.6140   26.3440 C   0  0  0  0  0  0  0  0  0  0  0  0
  -16.9610   15.5530   25.7160 C   0  0  0  0  0  0  0  0  0  0  0  0
  -15.9570   15.2280   25.6260 H   0  0  0  0  0  0  0  0  0  0  0  0
  -17.9960   14.8780   25.1640 N   0  0  0  0  0  0  0  0  0  0  0  0
  -17.9510   13.6670   24.3700 C   0  0  0  0  0  0  0  0  0  0  0  0
  -18.6530   13.8030   23.5390 H   0  0  0  0  0  0  0  0  0  0  0  0
  -16.9380   13.5830   23.9610 H   0  0  0  0  0  0  0  0  0  0  0  0
  -18.3220   12.4400   25.1880 C   0  0  0  0  0  0  0  0  0  0  0  0
  -19.4020   12.2740   25.1390 H   0  0  0  0  0  0  0  0  0  0  0  0
  -18.0260   12.5420   26.2370 H   0  0  0  0  0  0  0  0  0  0  0  0
  -17.6870   11.2870   24.6430 O   0  0  0  0  0  0  0  0  0  0  0  0
  -17.8210   11.3140   23.6790 H   0  0  0  0  0  0  0  0  0  0  0  0
  -19.1900   15.4770   25.4270 N   0  0  0  0  0  0  0  0  0  0  0  0
  -18.8820   16.5290   26.1410 C   0  0  0  0  0  0  0  0  0  0  0  0
  -19.6010   17.2150   26.5080 H   0  0  0  0  0  0  0  0  0  0  0  0
  1  2  1  0
  2  3  2  0
  2 15  1  0
  3  4  1  0
  3  5  1  0
  5  6  1  0
  5 14  1  0
  6  7  1  0
  6  8  1  0
  6  9  1  0
  9 10  1  0
  9 11  1  0
  9 12  1  0
 12 13  1  0
 14 15  2  0
 15 16  1  0
M  END
>  <EnInt_ele>  (1) 
1.998422

>  <EnInt_vdw>  (1) 
-0.005918343

>  <EnInt_tot>  (1) 
1.992504

>  <Charges>  (1) 
-0.06 0.06 -0.30 0.15 0.31 0.26 0.00 0.00 0.28 0.00 0.00 -0.68 0.40 -0.71 0.14 0.15

$$$$
