
     RDKit          3D

 30 31  0  0  0  0  0  0  0  0999 V2000
  -23.2850   12.9840   28.9660 N   0  0  0  0  0  0  0  0  0  0  0  0
  -24.3260   13.6770   28.1820 C   0  0  0  0  0  0  0  0  0  0  0  0
  -24.1660   14.7580   28.1660 H   0  0  0  0  0  0  0  0  0  0  0  0
  -24.2550   13.3800   27.1280 H   0  0  0  0  0  0  0  0  0  0  0  0
  -25.7160   13.3170   28.6850 C   0  0  0  0  0  0  0  0  0  0  0  0
  -25.8440   13.5500   29.7460 H   0  0  0  0  0  0  0  0  0  0  0  0
  -25.9120   12.2460   28.5600 H   0  0  0  0  0  0  0  0  0  0  0  0
  -26.4760   13.8660   28.1210 H   0  0  0  0  0  0  0  0  0  0  0  0
  -22.3520   12.2030   28.1290 C   0  0  0  0  0  0  0  0  0  0  0  0
  -22.0680   12.7600   27.2300 H   0  0  0  0  0  0  0  0  0  0  0  0
  -21.4100   12.0330   28.6670 H   0  0  0  0  0  0  0  0  0  0  0  0
  -22.9550   10.8560   27.7560 C   0  0  0  0  0  0  0  0  0  0  0  0
  -23.8780   10.9740   27.1800 H   0  0  0  0  0  0  0  0  0  0  0  0
  -23.1930   10.2700   28.6490 H   0  0  0  0  0  0  0  0  0  0  0  0
  -22.2480   10.2800   27.1500 H   0  0  0  0  0  0  0  0  0  0  0  0
  -23.1760   13.0500   30.4000 C   0  0  0  0  0  0  0  0  0  0  0  0
  -23.5890   14.2130   31.1470 N   0  0  0  0  0  0  0  0  0  0  0  0
  -24.1200   15.3780   30.7150 N   0  0  0  0  0  0  0  0  0  0  0  0
  -24.2880   16.0350   31.8220 C   0  0  0  0  0  0  0  0  0  0  0  0
  -24.6970   17.0150   31.8380 H   0  0  0  0  0  0  0  0  0  0  0  0
  -23.9150   15.4040   32.9400 N   0  0  0  0  0  0  0  0  0  0  0  0
  -23.4760   14.2550   32.5140 C   0  0  0  0  0  0  0  0  0  0  0  0
  -22.9640   13.2070   33.2600 N   0  0  0  0  0  0  0  0  0  0  0  0
  -22.5800   12.1420   32.6340 C   0  0  0  0  0  0  0  0  0  0  0  0
  -22.0210   10.9900   33.4220 C   0  0  0  0  0  0  0  0  0  0  0  0
  -21.7300   10.1620   32.7710 H   0  0  0  0  0  0  0  0  0  0  0  0
  -22.7770   10.6350   34.1290 H   0  0  0  0  0  0  0  0  0  0  0  0
  -21.1430   11.3270   33.9800 H   0  0  0  0  0  0  0  0  0  0  0  0
  -22.6690   12.0080   31.1570 C   0  0  0  0  0  0  0  0  0  0  0  0
  -22.3340   11.1240   30.6930 H   0  0  0  0  0  0  0  0  0  0  0  0
  1  2  1  0
  1  9  1  0
  1 16  1  0
  2  3  1  0
  2  4  1  0
  2  5  1  0
  5  6  1  0
  5  7  1  0
  5  8  1  0
  9 10  1  0
  9 11  1  0
  9 12  1  0
 12 13  1  0
 12 14  1  0
 12 15  1  0
 16 17  1  0
 16 29  2  0
 17 18  1  0
 17 22  1  0
 18 19  2  0
 19 20  1  0
 19 21  1  0
 21 22  2  0
 22 23  1  0
 23 24  2  0
 24 25  1  0
 24 29  1  0
 25 26  1  0
 25 27  1  0
 25 28  1  0
 29 30  1  0
M  END
>  <EnInt_ele>  (1) 
1.993022

>  <EnInt_vdw>  (1) 
0.8314378

>  <EnInt_tot>  (1) 
2.82446

>  <Charges>  (1) 
-0.84 0.37 0.00 0.00 0.00 0.00 0.00 0.00 0.37 0.00 0.00 0.00 0.00 0.00 0.00 0.07 0.60 -0.71 0.37 0.15 -0.57 0.31 -0.58 0.38 0.06 0.00 0.00 0.00 -0.14 0.15

$$$$
