
     RDKit          3D

 16 16  0  0  0  0  0  0  0  0999 V2000
  -22.8110   12.4890   26.7190 O   0  0  0  0  0  0  0  0  0  0  0  0
  -23.5100   11.5700   27.5580 C   0  0  0  0  0  0  0  0  0  0  0  0
  -24.5420   11.4600   27.2040 H   0  0  0  0  0  0  0  0  0  0  0  0
  -23.0200   10.5900   27.5330 H   0  0  0  0  0  0  0  0  0  0  0  0
  -23.5060   12.1280   28.9410 C   0  0  0  0  0  0  0  0  0  0  0  0
  -22.8480   11.2390   30.2490 S   0  0  0  0  0  0  0  0  0  0  0  0
  -23.2940   12.5540   31.2320 C   0  0  0  0  0  0  0  0  0  0  0  0
  -23.0400   12.5310   32.5510 N   0  0  0  0  0  0  0  0  0  0  0  0
  -22.5810   11.7480   33.0000 H   0  0  0  0  0  0  0  0  0  0  0  0
  -23.3060   13.3140   33.1360 H   0  0  0  0  0  0  0  0  0  0  0  0
  -23.8790   13.5400   30.6260 N   0  0  0  0  0  0  0  0  0  0  0  0
  -24.0010   13.2820   29.2770 N   0  0  0  0  0  0  0  0  0  0  0  0
  -21.4390   12.5850   27.0760 C   0  0  0  0  0  0  0  0  0  0  0  0
  -20.9570   13.2990   26.4020 H   0  0  0  0  0  0  0  0  0  0  0  0
  -20.9460   11.6140   26.9660 H   0  0  0  0  0  0  0  0  0  0  0  0
  -21.3350   12.9480   28.1020 H   0  0  0  0  0  0  0  0  0  0  0  0
  1  2  1  0
  1 13  1  0
  2  3  1  0
  2  4  1  0
  2  5  1  0
  5  6  1  0
  5 12  2  0
  6  7  1  0
  7  8  1  0
  7 11  2  0
  8  9  1  0
  8 10  1  0
 11 12  1  0
 13 14  1  0
 13 15  1  0
 13 16  1  0
M  END
>  <EnInt_ele>  (1) 
0.6887311

>  <EnInt_vdw>  (1) 
-0.6754997

>  <EnInt_tot>  (1) 
0.01323131

>  <Charges>  (1) 
-0.56 0.46 0.00 0.00 0.20 -0.08 0.46 -0.88 0.40 0.40 -0.34 -0.34 0.28 0.00 0.00 0.00

$$$$
