
     RDKit          3D

 29 30  0  0  1  0  0  0  0  0999 V2000
  -18.7120   17.1930   26.0340 O   0  0  0  0  0  0  0  0  0  0  0  0
  -18.1860   16.1110   25.8530 C   0  0  0  0  0  0  0  0  0  0  0  0
  -16.8710   16.0220   25.8100 N   0  0  0  0  0  0  0  0  0  0  0  0
  -16.3600   16.8850   25.9110 H   0  0  0  0  0  0  0  0  0  0  0  0
  -16.4010   15.1550   25.6190 H   0  0  0  0  0  0  0  0  0  0  0  0
  -18.9450   14.8280   25.6290 C   0  0  0  0  0  0  0  0  0  0  0  0
  -20.0100   15.0770   25.7080 H   0  0  0  0  0  0  0  0  0  0  0  0
  -18.7580   14.4660   24.6130 H   0  0  0  0  0  0  0  0  0  0  0  0
  -18.6000   13.7650   26.6630 C   0  0  0  0  0  0  0  0  0  0  0  0
  -18.6960   14.1940   27.6670 H   0  0  0  0  0  0  0  0  0  0  0  0
  -17.5660   13.4150   26.5800 H   0  0  0  0  0  0  0  0  0  0  0  0
  -19.5140   12.6090   26.6030 N   0  0  0  0  0  0  0  0  0  0  0  0
  -19.3440   11.5270   25.8500 C   0  0  0  0  0  0  0  0  0  0  0  0
  -18.2260   11.2480   24.9060 C   0  0  0  0  0  0  0  0  0  0  0  0
  -18.3880   10.2580   24.4780 H   0  0  0  0  0  0  0  0  0  0  0  0
  -17.2960   11.2780   25.4720 H   0  0  0  0  0  0  0  0  0  0  0  0
  -18.2550   12.0150   24.1300 H   0  0  0  0  0  0  0  0  0  0  0  0
  -20.3530   10.7160   26.0710 N   0  0  0  0  0  0  0  0  0  0  0  0
  -20.4620    9.8000   25.6060 H   0  0  0  0  0  0  0  0  0  0  0  0
  -21.2420   11.2640   26.9580 C   0  0  0  0  0  0  0  0  0  0  0  0
  -20.7240   12.4880   27.3040 C   0  0  0  0  0  0  0  0  0  0  0  0
  -21.3980   13.3390   28.1860 C   0  0  0  0  0  0  0  0  0  0  0  0
  -21.0100   14.2900   28.4420 H   0  0  0  0  0  0  0  0  0  0  0  0
  -22.6040   12.8910   28.7160 C   0  0  0  0  0  0  0  0  0  0  0  0
  -23.1440   13.5060   29.3920 H   0  0  0  0  0  0  0  0  0  0  0  0
  -23.1280   11.6220   28.3640 C   0  0  0  0  0  0  0  0  0  0  0  0
  -24.0500   11.3070   28.7870 H   0  0  0  0  0  0  0  0  0  0  0  0
  -22.4500   10.7920   27.4780 C   0  0  0  0  0  0  0  0  0  0  0  0
  -22.8340    9.8430   27.2030 H   0  0  0  0  0  0  0  0  0  0  0  0
  1  2  2  0
  2  3  1  0
  2  6  1  0
  3  4  1  0
  3  5  1  0
  6  7  1  0
  6  8  1  0
  6  9  1  0
  9 10  1  0
  9 11  1  0
  9 12  1  0
 12 13  1  0
 12 21  1  0
 13 14  1  0
 13 18  1  0
 14 15  1  0
 14 16  1  0
 14 17  1  0
 18 19  1  0
 18 20  1  0
 20 21  2  0
 20 28  1  0
 21 22  1  0
 22 23  1  0
 22 24  2  0
 24 25  1  0
 24 26  1  0
 26 27  1  0
 26 28  2  0
 28 29  1  0
M  CHG  2  12   1  13  -1
M  END
>  <EnInt_ele>  (1) 
-11.75299

>  <EnInt_vdw>  (1) 
0.3690268

>  <EnInt_tot>  (1) 
-11.38397

>  <Charges>  (1) 
-0.57 0.57 -0.80 0.37 0.37 0.06 0.00 0.00 0.50 0.00 0.00 -0.36 0.76 0.00 0.00 0.00 0.00 -0.76 0.40 0.10 0.36 -0.15 0.15 -0.15 0.15 -0.15 0.15 -0.15 0.15

$$$$
