
     RDKit          3D

 26 28  0  0  0  0  0  0  0  0999 V2000
  -22.2010   12.8770   29.6690 O   0  0  0  0  0  0  0  0  0  0  0  0
  -22.1420   12.9770   28.4480 C   0  0  0  0  0  0  0  0  0  0  0  0
  -23.1740   13.6140   27.8060 N   0  0  0  0  0  0  0  0  0  0  0  0
  -23.0780   13.8030   26.8050 H   0  0  0  0  0  0  0  0  0  0  0  0
  -24.3610   14.0570   28.4670 C   0  0  0  0  0  0  0  0  0  0  0  0
  -24.1860   14.8980   29.1340 H   0  0  0  0  0  0  0  0  0  0  0  0
  -25.4200   13.0750   28.8910 C   0  0  0  0  0  0  0  0  0  0  0  0
  -25.2890   12.0270   28.6500 H   0  0  0  0  0  0  0  0  0  0  0  0
  -25.9250   13.2550   29.8330 H   0  0  0  0  0  0  0  0  0  0  0  0
  -25.6880   14.0220   27.7590 C   0  0  0  0  0  0  0  0  0  0  0  0
  -26.3670   14.8490   27.9310 H   0  0  0  0  0  0  0  0  0  0  0  0
  -25.7230   13.6210   26.7540 H   0  0  0  0  0  0  0  0  0  0  0  0
  -20.9880   12.4930   27.6580 C   0  0  0  0  0  0  0  0  0  0  0  0
  -21.1450   11.3100   26.9120 C   0  0  0  0  0  0  0  0  0  0  0  0
  -22.0620   10.7800   26.9200 H   0  0  0  0  0  0  0  0  0  0  0  0
  -20.0750   10.8460   26.1640 C   0  0  0  0  0  0  0  0  0  0  0  0
  -20.0630    9.7240   25.3970 O   0  0  0  0  0  0  0  0  0  0  0  0
  -18.7170    9.7630   24.8800 C   0  0  0  0  0  0  0  0  0  0  0  0
  -18.1970    8.8490   25.1860 H   0  0  0  0  0  0  0  0  0  0  0  0
  -18.7620    9.7920   23.7850 H   0  0  0  0  0  0  0  0  0  0  0  0
  -17.9590   10.9020   25.3400 O   0  0  0  0  0  0  0  0  0  0  0  0
  -18.8780   11.5160   26.1310 C   0  0  0  0  0  0  0  0  0  0  0  0
  -18.6880   12.6920   26.8440 C   0  0  0  0  0  0  0  0  0  0  0  0
  -17.7580   13.2000   26.8000 H   0  0  0  0  0  0  0  0  0  0  0  0
  -19.7500   13.1800   27.6060 C   0  0  0  0  0  0  0  0  0  0  0  0
  -19.6240   14.0870   28.1400 H   0  0  0  0  0  0  0  0  0  0  0  0
  1  2  2  0
  2  3  1  0
  2 13  1  0
  3  4  1  0
  3  5  1  0
  5  6  1  0
  5  7  1  0
  5 10  1  0
  7  8  1  0
  7  9  1  0
  7 10  1  0
 10 11  1  0
 10 12  1  0
 13 14  2  0
 13 25  1  0
 14 15  1  0
 14 16  1  0
 16 17  1  0
 16 22  2  0
 17 18  1  0
 18 19  1  0
 18 20  1  0
 18 21  1  0
 21 22  1  0
 22 23  1  0
 23 24  1  0
 23 25  2  0
 25 26  1  0
M  END
>  <EnInt_ele>  (1) 
-9.28072

>  <EnInt_vdw>  (1) 
6.696336

>  <EnInt_tot>  (1) 
-2.584383

>  <Charges>  (1) 
-0.57 0.54 -0.58 0.37 0.05 0.10 -0.20 0.10 0.10 -0.20 0.10 0.10 0.09 -0.15 0.15 0.08 -0.36 0.56 0.00 0.00 -0.36 0.08 -0.15 0.15 -0.15 0.15

$$$$
