
     RDKit          3D

 29 30  0  0  1  0  0  0  0  0999 V2000
  -18.7070   11.5030   25.2790 C   0  0  0  0  0  0  0  0  0  0  0  0
  -19.5100   10.8180   24.9870 H   0  0  0  0  0  0  0  0  0  0  0  0
  -18.1060   11.0160   26.0570 H   0  0  0  0  0  0  0  0  0  0  0  0
  -18.0450   11.6500   24.4180 H   0  0  0  0  0  0  0  0  0  0  0  0
  -19.2580   12.8390   25.7650 C   0  0  0  0  0  0  0  0  0  0  0  0
  -18.1640   13.6910   26.1060 O   0  0  0  0  0  0  0  0  0  0  0  0
  -17.6980   13.2800   26.8520 H   0  0  0  0  0  0  0  0  0  0  0  0
  -20.1920   12.6680   26.9220 C   0  0  0  0  0  0  0  0  0  0  0  0
  -19.8320   12.4300   28.2440 C   0  0  0  0  0  0  0  0  0  0  0  0
  -18.8420   12.3330   28.6080 H   0  0  0  0  0  0  0  0  0  0  0  0
  -20.8820   12.3380   29.0120 N   0  0  0  0  0  0  0  0  0  0  0  0
  -21.9470   12.5180   28.1780 N   0  0  0  0  0  0  0  0  0  0  0  0
  -23.3010   12.4800   28.6760 C   0  0  0  0  0  0  0  0  0  0  0  0
  -23.5430   11.4290   28.8840 H   0  0  0  0  0  0  0  0  0  0  0  0
  -23.5320   13.3020   29.9430 C   0  0  0  0  0  0  0  0  0  0  0  0
  -23.1150   12.8210   30.8340 H   0  0  0  0  0  0  0  0  0  0  0  0
  -23.0770   14.2980   29.8650 H   0  0  0  0  0  0  0  0  0  0  0  0
  -25.0490   13.4400   30.0210 C   0  0  0  0  0  0  0  0  0  0  0  0
  -25.4700   12.6530   30.6570 H   0  0  0  0  0  0  0  0  0  0  0  0
  -25.3390   14.4020   30.4560 H   0  0  0  0  0  0  0  0  0  0  0  0
  -25.5680   13.2820   28.5910 C   0  0  0  0  0  0  0  0  0  0  0  0
  -26.1290   14.1630   28.2630 H   0  0  0  0  0  0  0  0  0  0  0  0
  -26.2460   12.4220   28.5350 H   0  0  0  0  0  0  0  0  0  0  0  0
  -24.3420   13.0480   27.7140 C   0  0  0  0  0  0  0  0  0  0  0  0
  -24.0120   14.0020   27.2820 H   0  0  0  0  0  0  0  0  0  0  0  0
  -24.5540   12.3690   26.8820 H   0  0  0  0  0  0  0  0  0  0  0  0
  -21.5440   12.7220   26.9060 C   0  0  0  0  0  0  0  0  0  0  0  0
  -22.2220   12.8810   26.1080 H   0  0  0  0  0  0  0  0  0  0  0  0
  -19.7960   13.3260   24.9420 H   0  0  0  0  0  0  0  0  0  0  0  0
  1  2  1  0
  1  3  1  0
  1  4  1  0
  1  5  1  0
  5  6  1  0
  5  8  1  0
  5 29  1  0
  6  7  1  0
  8  9  1  0
  8 27  2  0
  9 10  1  0
  9 11  2  0
 11 12  1  0
 12 13  1  0
 12 27  1  0
 13 14  1  0
 13 15  1  0
 13 24  1  0
 15 16  1  0
 15 17  1  0
 15 18  1  0
 18 19  1  0
 18 20  1  0
 18 21  1  0
 21 22  1  0
 21 23  1  0
 21 24  1  0
 24 25  1  0
 24 26  1  0
 27 28  1  0
M  END
>  <EnInt_ele>  (1) 
0

>  <EnInt_vdw>  (1) 
-0.9163489

>  <EnInt_tot>  (1) 
-0.9163489

>  <Charges>  (1) 
0.00 0.00 0.00 0.00 0.46 -0.68 0.40 -0.18 0.14 0.15 -0.71 0.31 0.26 0.00 0.00 0.00 0.00 0.00 0.00 0.00 0.00 0.00 0.00 0.00 0.00 0.00 -0.30 0.15 0.00

$$$$
