
     RDKit          3D

 32 33  0  0  0  0  0  0  0  0999 V2000
  -21.7360   13.2580   26.4540 O   0  0  0  0  0  0  0  0  0  0  0  0
  -20.8690   12.7610   27.1460 C   0  0  0  0  0  0  0  0  0  0  0  0
  -21.1430   12.3490   28.4190 N   0  0  0  0  0  0  0  0  0  0  0  0
  -20.3370   11.9490   28.9100 H   0  0  0  0  0  0  0  0  0  0  0  0
  -22.3460   12.4130   29.1050 C   0  0  0  0  0  0  0  0  0  0  0  0
  -23.5180   12.9170   28.6680 C   0  0  0  0  0  0  0  0  0  0  0  0
  -23.7970   13.3580   27.7460 H   0  0  0  0  0  0  0  0  0  0  0  0
  -24.3770   12.7490   29.7010 N   0  0  0  0  0  0  0  0  0  0  0  0
  -25.7730   13.1270   29.7620 C   0  0  0  0  0  0  0  0  0  0  0  0
  -26.3080   12.5440   29.0050 H   0  0  0  0  0  0  0  0  0  0  0  0
  -26.1570   12.8350   30.7460 H   0  0  0  0  0  0  0  0  0  0  0  0
  -25.9770   14.6160   29.5390 C   0  0  0  0  0  0  0  0  0  0  0  0
  -25.6110   14.9210   28.5530 H   0  0  0  0  0  0  0  0  0  0  0  0
  -25.4400   15.2040   30.2910 H   0  0  0  0  0  0  0  0  0  0  0  0
  -27.0390   14.8680   29.6020 H   0  0  0  0  0  0  0  0  0  0  0  0
  -23.7830   12.1500   30.7750 N   0  0  0  0  0  0  0  0  0  0  0  0
  -22.5450   11.9510   30.4030 C   0  0  0  0  0  0  0  0  0  0  0  0
  -21.8140   11.4970   31.0200 H   0  0  0  0  0  0  0  0  0  0  0  0
  -19.4390   12.5790   26.6590 C   0  0  0  0  0  0  0  0  0  0  0  0
  -18.7890   12.6820   27.5370 H   0  0  0  0  0  0  0  0  0  0  0  0
  -19.2080   11.2090   26.0080 C   0  0  0  0  0  0  0  0  0  0  0  0
  -18.7130   10.5160   26.6960 H   0  0  0  0  0  0  0  0  0  0  0  0
  -20.1460   10.7360   25.6970 H   0  0  0  0  0  0  0  0  0  0  0  0
  -18.3360   11.4890   24.7920 C   0  0  0  0  0  0  0  0  0  0  0  0
  -17.2820   11.5380   25.0870 H   0  0  0  0  0  0  0  0  0  0  0  0
  -18.4400   10.7200   24.0210 H   0  0  0  0  0  0  0  0  0  0  0  0
  -18.8120   12.8510   24.3190 C   0  0  0  0  0  0  0  0  0  0  0  0
  -19.7580   12.7550   23.7750 H   0  0  0  0  0  0  0  0  0  0  0  0
  -18.0880   13.3380   23.6590 H   0  0  0  0  0  0  0  0  0  0  0  0
  -19.0210   13.6250   25.6150 C   0  0  0  0  0  0  0  0  0  0  0  0
  -19.7400   14.4410   25.4880 H   0  0  0  0  0  0  0  0  0  0  0  0
  -18.0680   14.0770   25.9210 H   0  0  0  0  0  0  0  0  0  0  0  0
  1  2  2  0
  2  3  1  0
  2 19  1  0
  3  4  1  0
  3  5  1  0
  5  6  2  0
  5 17  1  0
  6  7  1  0
  6  8  1  0
  8  9  1  0
  8 16  1  0
  9 10  1  0
  9 11  1  0
  9 12  1  0
 12 13  1  0
 12 14  1  0
 12 15  1  0
 16 17  2  0
 17 18  1  0
 19 20  1  0
 19 21  1  0
 19 30  1  0
 21 22  1  0
 21 23  1  0
 21 24  1  0
 24 25  1  0
 24 26  1  0
 24 27  1  0
 27 28  1  0
 27 29  1  0
 27 30  1  0
 30 31  1  0
 30 32  1  0
M  END
>  <EnInt_ele>  (1) 
-9.108333

>  <EnInt_vdw>  (1) 
6.796339

>  <EnInt_tot>  (1) 
-2.311995

>  <Charges>  (1) 
-0.57 0.57 -0.49 0.37 0.06 -0.30 0.15 0.31 0.26 0.00 0.00 0.00 0.00 0.00 0.00 -0.71 0.14 0.15 0.06 0.00 0.00 0.00 0.00 0.00 0.00 0.00 0.00 0.00 0.00 0.00 0.00 0.00

$$$$
