
     RDKit          3D

 16 16  0  0  0  0  0  0  0  0999 V2000
  -19.1170   10.7150   25.0470 Br  0  0  0  0  0  0  0  0  0  0  0  0
  -19.0710   12.3790   25.8920 C   0  0  0  0  0  0  0  0  0  0  0  0
  -18.4710   13.5100   25.4660 C   0  0  0  0  0  0  0  0  0  0  0  0
  -17.9120   13.7270   24.5940 H   0  0  0  0  0  0  0  0  0  0  0  0
  -18.7220   14.4390   26.4180 N   0  0  0  0  0  0  0  0  0  0  0  0
  -18.2920   15.8220   26.4520 C   0  0  0  0  0  0  0  0  0  0  0  0
  -18.4920   16.2440   25.4620 H   0  0  0  0  0  0  0  0  0  0  0  0
  -18.9200   16.3400   27.1870 H   0  0  0  0  0  0  0  0  0  0  0  0
  -16.8170   15.9480   26.7990 C   0  0  0  0  0  0  0  0  0  0  0  0
  -16.2110   15.4850   26.0150 H   0  0  0  0  0  0  0  0  0  0  0  0
  -16.5790   15.4740   27.7580 H   0  0  0  0  0  0  0  0  0  0  0  0
  -16.4520   17.3230   26.8660 O   0  0  0  0  0  0  0  0  0  0  0  0
  -15.5000   17.3580   27.0650 H   0  0  0  0  0  0  0  0  0  0  0  0
  -19.4710   13.9330   27.4360 N   0  0  0  0  0  0  0  0  0  0  0  0
  -19.6750   12.6830   27.1070 C   0  0  0  0  0  0  0  0  0  0  0  0
  -20.2310   12.0060   27.7020 H   0  0  0  0  0  0  0  0  0  0  0  0
  1  2  1  0
  2  3  2  0
  2 15  1  0
  3  4  1  0
  3  5  1  0
  5  6  1  0
  5 14  1  0
  6  7  1  0
  6  8  1  0
  6  9  1  0
  9 10  1  0
  9 11  1  0
  9 12  1  0
 12 13  1  0
 14 15  2  0
 15 16  1  0
M  END
>  <EnInt_ele>  (1) 
-0.7813789

>  <EnInt_vdw>  (1) 
3.3409

>  <EnInt_tot>  (1) 
2.559522

>  <Charges>  (1) 
-0.06 0.06 -0.30 0.15 0.31 0.26 0.00 0.00 0.28 0.00 0.00 -0.68 0.40 -0.71 0.14 0.15

$$$$
