
     RDKit          3D

 35 37  0  0  0  0  0  0  0  0999 V2000
  -17.4340   11.6120   23.9720 F   0  0  0  0  0  0  0  0  0  0  0  0
  -18.4640   11.8690   24.7920 C   0  0  0  0  0  0  0  0  0  0  0  0
  -19.2050   10.8050   25.2910 C   0  0  0  0  0  0  0  0  0  0  0  0
  -18.9540    9.8120   25.0250 H   0  0  0  0  0  0  0  0  0  0  0  0
  -20.2760   11.0700   26.1400 C   0  0  0  0  0  0  0  0  0  0  0  0
  -20.8400   10.2650   26.5220 H   0  0  0  0  0  0  0  0  0  0  0  0
  -20.5980   12.3980   26.4720 C   0  0  0  0  0  0  0  0  0  0  0  0
  -21.6760   12.6700   27.3050 N   0  0  0  0  0  0  0  0  0  0  0  0
  -21.5330   12.8260   28.7610 C   0  0  0  0  0  0  0  0  0  0  0  0
  -20.5200   12.6190   29.1210 H   0  0  0  0  0  0  0  0  0  0  0  0
  -21.7410   13.8740   29.0100 H   0  0  0  0  0  0  0  0  0  0  0  0
  -22.5370   11.9240   29.4960 C   0  0  0  0  0  0  0  0  0  0  0  0
  -22.4760   12.1060   30.5720 H   0  0  0  0  0  0  0  0  0  0  0  0
  -22.2880   10.8700   29.3270 H   0  0  0  0  0  0  0  0  0  0  0  0
  -23.9000   12.1260   28.9880 N   0  0  0  0  0  0  0  0  0  0  0  0
  -24.9910   12.4390   29.7660 C   0  0  0  0  0  0  0  0  0  0  0  0
  -26.0750   12.5710   29.2280 O   0  0  0  0  0  0  0  0  0  0  0  0
  -24.8230   12.6020   31.2270 C   0  0  0  0  0  0  0  0  0  0  0  0
  -24.2370   13.4710   31.5100 H   0  0  0  0  0  0  0  0  0  0  0  0
  -24.6450   11.3870   32.1100 C   0  0  0  0  0  0  0  0  0  0  0  0
  -24.6670   10.4070   31.6470 H   0  0  0  0  0  0  0  0  0  0  0  0
  -23.9610   11.4660   32.9460 H   0  0  0  0  0  0  0  0  0  0  0  0
  -25.9230   12.1670   32.1680 C   0  0  0  0  0  0  0  0  0  0  0  0
  -26.8110   11.7050   31.7500 H   0  0  0  0  0  0  0  0  0  0  0  0
  -26.1090   12.7730   33.0460 H   0  0  0  0  0  0  0  0  0  0  0  0
  -24.0280   11.9610   27.5350 C   0  0  0  0  0  0  0  0  0  0  0  0
  -23.8230   10.9060   27.3180 H   0  0  0  0  0  0  0  0  0  0  0  0
  -25.0460   12.1740   27.1940 H   0  0  0  0  0  0  0  0  0  0  0  0
  -23.0350   12.8560   26.7730 C   0  0  0  0  0  0  0  0  0  0  0  0
  -23.3170   13.9090   26.8860 H   0  0  0  0  0  0  0  0  0  0  0  0
  -23.1060   12.6020   25.7090 H   0  0  0  0  0  0  0  0  0  0  0  0
  -19.8170   13.4520   25.9700 C   0  0  0  0  0  0  0  0  0  0  0  0
  -20.0260   14.4500   26.2530 H   0  0  0  0  0  0  0  0  0  0  0  0
  -18.7490   13.1870   25.1180 C   0  0  0  0  0  0  0  0  0  0  0  0
  -18.1550   13.9720   24.7290 H   0  0  0  0  0  0  0  0  0  0  0  0
  1  2  1  0
  2  3  2  0
  2 34  1  0
  3  4  1  0
  3  5  1  0
  5  6  1  0
  5  7  2  0
  7  8  1  0
  7 32  1  0
  8  9  1  0
  8 29  1  0
  9 10  1  0
  9 11  1  0
  9 12  1  0
 12 13  1  0
 12 14  1  0
 12 15  1  0
 15 16  1  0
 15 26  1  0
 16 17  2  0
 16 18  1  0
 18 19  1  0
 18 20  1  0
 18 23  1  0
 20 21  1  0
 20 22  1  0
 20 23  1  0
 23 24  1  0
 23 25  1  0
 26 27  1  0
 26 28  1  0
 26 29  1  0
 29 30  1  0
 29 31  1  0
 32 33  1  0
 32 34  2  0
 34 35  1  0
M  END
>  <EnInt_ele>  (1) 
-3.969844

>  <EnInt_vdw>  (1) 
-0.9049715

>  <EnInt_tot>  (1) 
-4.874815

>  <Charges>  (1) 
-0.19 0.19 -0.15 0.15 -0.15 0.15 0.10 -0.84 0.37 0.00 0.00 0.30 0.00 0.00 -0.66 0.63 -0.57 -0.10 0.10 -0.20 0.10 0.10 -0.20 0.10 0.10 0.30 0.00 0.00 0.37 0.00 0.00 -0.15 0.15 -0.15 0.15

$$$$
