
     RDKit          3D

 19 19  0  0  0  0  0  0  0  0999 V2000
  -18.4190   12.3580   24.6470 Br  0  0  0  0  0  0  0  0  0  0  0  0
  -19.5440   12.6660   26.1040 C   0  0  0  0  0  0  0  0  0  0  0  0
  -20.3980   11.8020   26.6930 C   0  0  0  0  0  0  0  0  0  0  0  0
  -20.6370   10.7920   26.4820 H   0  0  0  0  0  0  0  0  0  0  0  0
  -20.9850   12.4900   27.6960 N   0  0  0  0  0  0  0  0  0  0  0  0
  -21.9750   12.0210   28.6450 C   0  0  0  0  0  0  0  0  0  0  0  0
  -22.1740   10.9690   28.4120 H   0  0  0  0  0  0  0  0  0  0  0  0
  -21.5190   12.0780   29.6390 H   0  0  0  0  0  0  0  0  0  0  0  0
  -23.2490   12.8510   28.5910 C   0  0  0  0  0  0  0  0  0  0  0  0
  -23.0440   13.9090   28.7910 H   0  0  0  0  0  0  0  0  0  0  0  0
  -23.9540   12.4780   29.3420 H   0  0  0  0  0  0  0  0  0  0  0  0
  -23.8470   12.7060   27.3000 O   0  0  0  0  0  0  0  0  0  0  0  0
  -25.0680   13.4280   27.2010 C   0  0  0  0  0  0  0  0  0  0  0  0
  -25.4820   13.2690   26.2030 H   0  0  0  0  0  0  0  0  0  0  0  0
  -24.8900   14.4990   27.3400 H   0  0  0  0  0  0  0  0  0  0  0  0
  -25.7880   13.0670   27.9420 H   0  0  0  0  0  0  0  0  0  0  0  0
  -20.5340   13.7740   27.7620 N   0  0  0  0  0  0  0  0  0  0  0  0
  -19.6590   13.8680   26.7940 C   0  0  0  0  0  0  0  0  0  0  0  0
  -19.1210   14.7550   26.5770 H   0  0  0  0  0  0  0  0  0  0  0  0
  1  2  1  0
  2  3  2  0
  2 18  1  0
  3  4  1  0
  3  5  1  0
  5  6  1  0
  5 17  1  0
  6  7  1  0
  6  8  1  0
  6  9  1  0
  9 10  1  0
  9 11  1  0
  9 12  1  0
 12 13  1  0
 13 14  1  0
 13 15  1  0
 13 16  1  0
 17 18  2  0
 18 19  1  0
M  END
>  <EnInt_ele>  (1) 
-0.1443124

>  <EnInt_vdw>  (1) 
-2.613873

>  <EnInt_tot>  (1) 
-2.758185

>  <Charges>  (1) 
-0.06 0.06 -0.30 0.15 0.31 0.26 0.00 0.00 0.28 0.00 0.00 -0.56 0.28 0.00 0.00 0.00 -0.71 0.14 0.15

$$$$
