
     RDKit          3D

 20 20  0  0  0  0  0  0  0  0999 V2000
  -17.4930   15.7870   26.1120 S   0  0  0  0  0  0  0  0  0  0  0  0
  -16.3710   15.5970   25.2220 O   0  0  0  0  0  0  0  0  0  0  0  0
  -18.4200   16.8870   25.9570 O   0  0  0  0  0  0  0  0  0  0  0  0
  -16.8740   15.8780   27.6780 N   0  0  0  0  0  0  0  0  0  0  0  0
  -17.3230   16.6120   28.2300 H   0  0  0  0  0  0  0  0  0  0  0  0
  -16.8520   14.9650   28.1410 H   0  0  0  0  0  0  0  0  0  0  0  0
  -18.4140   14.2880   26.1840 C   0  0  0  0  0  0  0  0  0  0  0  0
  -19.4170   14.1200   27.1430 C   0  0  0  0  0  0  0  0  0  0  0  0
  -19.6210   14.8800   27.8510 H   0  0  0  0  0  0  0  0  0  0  0  0
  -20.1480   12.9410   27.1510 C   0  0  0  0  0  0  0  0  0  0  0  0
  -21.1070   12.7840   28.0760 F   0  0  0  0  0  0  0  0  0  0  0  0
  -19.9300   11.9230   26.2360 C   0  0  0  0  0  0  0  0  0  0  0  0
  -20.5140   11.0400   26.2760 H   0  0  0  0  0  0  0  0  0  0  0  0
  -18.9390   12.0860   25.2700 C   0  0  0  0  0  0  0  0  0  0  0  0
  -18.7080   11.0250   24.2350 C   0  0  0  0  0  0  0  0  0  0  0  0
  -18.9490   10.0320   24.6300 H   0  0  0  0  0  0  0  0  0  0  0  0
  -17.6580   11.0040   23.9250 H   0  0  0  0  0  0  0  0  0  0  0  0
  -19.3320   11.2170   23.3570 H   0  0  0  0  0  0  0  0  0  0  0  0
  -18.1940   13.2690   25.2470 C   0  0  0  0  0  0  0  0  0  0  0  0
  -17.4480   13.4060   24.5040 H   0  0  0  0  0  0  0  0  0  0  0  0
  1  2  2  0
  1  3  2  0
  1  4  1  0
  1  7  1  0
  4  5  1  0
  4  6  1  0
  7  8  2  0
  7 19  1  0
  8  9  1  0
  8 10  1  0
 10 11  1  0
 10 12  2  0
 12 13  1  0
 12 14  1  0
 14 15  1  0
 14 19  2  0
 15 16  1  0
 15 17  1  0
 15 18  1  0
 19 20  1  0
M  END
>  <EnInt_ele>  (1) 
-27.57682

>  <EnInt_vdw>  (1) 
-1.614958

>  <EnInt_tot>  (1) 
-29.19178

>  <Charges>  (1) 
1.45 -0.65 -0.65 -0.98 0.42 0.42 -0.01 -0.15 0.15 0.19 -0.19 -0.15 0.15 -0.14 0.14 0.00 0.00 0.00 -0.15 0.15

$$$$
