
     RDKit          3D

 19 19  0  0  0  0  0  0  0  0999 V2000
  -18.9660   12.4120   28.3070 O   0  0  0  0  0  0  0  0  0  0  0  0
  -19.5310   12.1270   27.2600 C   0  0  0  0  0  0  0  0  0  0  0  0
  -20.8400   12.2630   27.1040 N   0  0  0  0  0  0  0  0  0  0  0  0
  -21.2740   12.0090   26.2330 H   0  0  0  0  0  0  0  0  0  0  0  0
  -21.6920   12.7670   28.1600 C   0  0  0  0  0  0  0  0  0  0  0  0
  -21.4400   12.2450   29.0890 H   0  0  0  0  0  0  0  0  0  0  0  0
  -21.4820   13.8320   28.3040 H   0  0  0  0  0  0  0  0  0  0  0  0
  -23.1120   12.5410   27.7830 C   0  0  0  0  0  0  0  0  0  0  0  0
  -23.6760   11.3790   27.3760 C   0  0  0  0  0  0  0  0  0  0  0  0
  -23.2710   10.4100   27.2350 H   0  0  0  0  0  0  0  0  0  0  0  0
  -24.9770   11.6620   27.1520 N   0  0  0  0  0  0  0  0  0  0  0  0
  -25.6920   10.9820   26.8310 H   0  0  0  0  0  0  0  0  0  0  0  0
  -25.2610   12.9690   27.3940 N   0  0  0  0  0  0  0  0  0  0  0  0
  -24.1290   13.4910   27.7760 C   0  0  0  0  0  0  0  0  0  0  0  0
  -24.0210   14.5140   28.0400 H   0  0  0  0  0  0  0  0  0  0  0  0
  -18.7890   11.5710   26.0770 C   0  0  0  0  0  0  0  0  0  0  0  0
  -19.3130   11.7890   25.1430 H   0  0  0  0  0  0  0  0  0  0  0  0
  -18.6940   10.4880   26.1910 H   0  0  0  0  0  0  0  0  0  0  0  0
  -17.7930   12.0210   26.0280 H   0  0  0  0  0  0  0  0  0  0  0  0
  1  2  2  0
  2  3  1  0
  2 16  1  0
  3  4  1  0
  3  5  1  0
  5  6  1  0
  5  7  1  0
  5  8  1  0
  8  9  2  0
  8 14  1  0
  9 10  1  0
  9 11  1  0
 11 12  1  0
 11 13  1  0
 13 14  2  0
 14 15  1  0
 16 17  1  0
 16 18  1  0
 16 19  1  0
M  END
>  <EnInt_ele>  (1) 
-8.993579

>  <EnInt_vdw>  (1) 
1.759523

>  <EnInt_tot>  (1) 
-7.234056

>  <Charges>  (1) 
-0.57 0.57 -0.73 0.37 0.48 0.00 0.00 -0.18 -0.30 0.15 0.30 0.27 -0.71 0.14 0.15 0.06 0.00 0.00 0.00

$$$$
