
     RDKit          3D

 18 18  0  0  0  0  0  0  0  0999 V2000
  -20.9210   14.0010   28.1180 O   0  0  0  0  0  0  0  0  0  0  0  0
  -20.9710   12.9350   27.5220 C   0  0  0  0  0  0  0  0  0  0  0  0
  -22.1820   12.3450   27.3340 N   0  0  0  0  0  0  0  0  0  0  0  0
  -22.2220   11.4930   26.7650 H   0  0  0  0  0  0  0  0  0  0  0  0
  -23.4120   12.8880   27.8750 C   0  0  0  0  0  0  0  0  0  0  0  0
  -23.5180   12.5430   28.9090 H   0  0  0  0  0  0  0  0  0  0  0  0
  -23.3200   13.9790   27.8910 H   0  0  0  0  0  0  0  0  0  0  0  0
  -24.6170   12.4720   27.0540 C   0  0  0  0  0  0  0  0  0  0  0  0
  -24.7170   11.3820   27.0310 H   0  0  0  0  0  0  0  0  0  0  0  0
  -24.5250   12.8200   26.0190 H   0  0  0  0  0  0  0  0  0  0  0  0
  -25.5330   12.8930   27.4780 H   0  0  0  0  0  0  0  0  0  0  0  0
  -19.8150   12.2810   26.9820 C   0  0  0  0  0  0  0  0  0  0  0  0
  -19.9140   11.2450   26.1500 N   0  0  0  0  0  0  0  0  0  0  0  0
  -20.8040   10.8220   25.8210 H   0  0  0  0  0  0  0  0  0  0  0  0
  -18.7030   10.8120   25.7860 N   0  0  0  0  0  0  0  0  0  0  0  0
  -17.8110   11.5740   26.3860 N   0  0  0  0  0  0  0  0  0  0  0  0
  -18.4830   12.4750   27.1170 C   0  0  0  0  0  0  0  0  0  0  0  0
  -18.0100   13.2200   27.7050 H   0  0  0  0  0  0  0  0  0  0  0  0
  1  2  2  0
  2  3  1  0
  2 12  1  0
  3  4  1  0
  3  5  1  0
  5  6  1  0
  5  7  1  0
  5  8  1  0
  8  9  1  0
  8 10  1  0
  8 11  1  0
 12 13  1  0
 12 17  2  0
 13 14  1  0
 13 15  1  0
 15 16  2  0
 16 17  1  0
 17 18  1  0
M  END
>  <EnInt_ele>  (1) 
-18.5906

>  <EnInt_vdw>  (1) 
6.082451

>  <EnInt_tot>  (1) 
-12.50814

>  <Charges>  (1) 
-0.57 0.71 -0.73 0.37 0.30 0.00 0.00 0.00 0.00 0.00 0.00 -0.24 0.30 0.27 -0.42 -0.23 0.08 0.15

$$$$
