
     RDKit          3D

 19 19  0  0  0  0  0  0  0  0999 V2000
  -18.9420   12.3900   28.2770 O   0  0  0  0  0  0  0  0  0  0  0  0
  -19.5140   12.1100   27.2330 C   0  0  0  0  0  0  0  0  0  0  0  0
  -20.8230   12.2520   27.0840 N   0  0  0  0  0  0  0  0  0  0  0  0
  -21.2630   12.0020   26.2150 H   0  0  0  0  0  0  0  0  0  0  0  0
  -21.6670   12.7580   28.1460 C   0  0  0  0  0  0  0  0  0  0  0  0
  -21.4100   12.2350   29.0730 H   0  0  0  0  0  0  0  0  0  0  0  0
  -21.4540   13.8230   28.2890 H   0  0  0  0  0  0  0  0  0  0  0  0
  -23.0900   12.5360   27.7780 C   0  0  0  0  0  0  0  0  0  0  0  0
  -23.6580   11.3770   27.3700 C   0  0  0  0  0  0  0  0  0  0  0  0
  -23.2550   10.4080   27.2200 H   0  0  0  0  0  0  0  0  0  0  0  0
  -24.9600   11.6620   27.1570 N   0  0  0  0  0  0  0  0  0  0  0  0
  -25.6780   10.9840   26.8380 H   0  0  0  0  0  0  0  0  0  0  0  0
  -25.2420   12.9670   27.4080 N   0  0  0  0  0  0  0  0  0  0  0  0
  -24.1060   13.4860   27.7850 C   0  0  0  0  0  0  0  0  0  0  0  0
  -23.9950   14.5070   28.0540 H   0  0  0  0  0  0  0  0  0  0  0  0
  -18.7810   11.5520   26.0440 C   0  0  0  0  0  0  0  0  0  0  0  0
  -19.3100   11.7750   25.1130 H   0  0  0  0  0  0  0  0  0  0  0  0
  -18.6910   10.4690   26.1560 H   0  0  0  0  0  0  0  0  0  0  0  0
  -17.7840   11.9980   25.9910 H   0  0  0  0  0  0  0  0  0  0  0  0
  1  2  2  0
  2  3  1  0
  2 16  1  0
  3  4  1  0
  3  5  1  0
  5  6  1  0
  5  7  1  0
  5  8  1  0
  8  9  2  0
  8 14  1  0
  9 10  1  0
  9 11  1  0
 11 12  1  0
 11 13  1  0
 13 14  2  0
 14 15  1  0
 16 17  1  0
 16 18  1  0
 16 19  1  0
M  END
>  <EnInt_ele>  (1) 
-9.045376

>  <EnInt_vdw>  (1) 
1.610932

>  <EnInt_tot>  (1) 
-7.434443

>  <Charges>  (1) 
-0.57 0.57 -0.73 0.37 0.48 0.00 0.00 -0.18 -0.30 0.15 0.30 0.27 -0.71 0.14 0.15 0.06 0.00 0.00 0.00

$$$$
