
     RDKit          3D

 19 19  0  0  0  0  0  0  0  0999 V2000
  -19.0670    9.9590   24.8770 Br  0  0  0  0  0  0  0  0  0  0  0  0
  -18.8220   11.7610   25.3140 C   0  0  0  0  0  0  0  0  0  0  0  0
  -19.0190   12.7390   24.3880 C   0  0  0  0  0  0  0  0  0  0  0  0
  -19.3130   12.5130   23.3980 H   0  0  0  0  0  0  0  0  0  0  0  0
  -18.8280   14.1140   24.7240 C   0  0  0  0  0  0  0  0  0  0  0  0
  -18.9710   15.0490   23.9250 O   0  0  0  0  0  0  0  0  0  0  0  0
  -18.4490   14.4180   26.0360 N   0  0  0  0  0  0  0  0  0  0  0  0
  -18.2500   15.8140   26.4280 C   0  0  0  0  0  0  0  0  0  0  0  0
  -18.6700   16.4710   25.6580 H   0  0  0  0  0  0  0  0  0  0  0  0
  -18.8180   16.0310   27.3420 H   0  0  0  0  0  0  0  0  0  0  0  0
  -16.7740   16.1510   26.6300 C   0  0  0  0  0  0  0  0  0  0  0  0
  -16.3810   15.7180   27.5550 H   0  0  0  0  0  0  0  0  0  0  0  0
  -16.6340   17.2360   26.6880 H   0  0  0  0  0  0  0  0  0  0  0  0
  -16.0010   15.6670   25.5380 O   0  0  0  0  0  0  0  0  0  0  0  0
  -15.0810   15.9500   25.6850 H   0  0  0  0  0  0  0  0  0  0  0  0
  -18.2440   13.4170   26.9790 C   0  0  0  0  0  0  0  0  0  0  0  0
  -17.9480   13.7440   27.9460 H   0  0  0  0  0  0  0  0  0  0  0  0
  -18.4250   12.1090   26.6350 C   0  0  0  0  0  0  0  0  0  0  0  0
  -18.2720   11.3400   27.3480 H   0  0  0  0  0  0  0  0  0  0  0  0
  1  2  1  0
  2  3  2  0
  2 18  1  0
  3  4  1  0
  3  5  1  0
  5  6  2  0
  5  7  1  0
  7  8  1  0
  7 16  1  0
  8  9  1  0
  8 10  1  0
  8 11  1  0
 11 12  1  0
 11 13  1  0
 11 14  1  0
 14 15  1  0
 16 17  1  0
 16 18  2  0
 18 19  1  0
M  END
>  <EnInt_ele>  (1) 
-2.177327

>  <EnInt_vdw>  (1) 
29.57242

>  <EnInt_tot>  (1) 
27.3951

>  <Charges>  (1) 
-0.11 0.11 -0.14 0.15 0.62 -0.57 -0.47 0.30 0.00 0.00 0.28 0.00 0.00 -0.68 0.40 -0.04 0.15 -0.15 0.15

$$$$
