
     RDKit          3D

 24 24  0  0  0  0  0  0  0  0999 V2000
  -25.3620   12.3400   28.4520 O   0  0  0  0  0  0  0  0  0  0  0  0
  -26.1820   11.8850   28.1890 H   0  0  0  0  0  0  0  0  0  0  0  0
  -24.5230   12.3860   27.3040 C   0  0  0  0  0  0  0  0  0  0  0  0
  -24.3220   11.3610   26.9770 H   0  0  0  0  0  0  0  0  0  0  0  0
  -25.0730   12.9050   26.5120 H   0  0  0  0  0  0  0  0  0  0  0  0
  -23.2230   13.1430   27.6040 C   0  0  0  0  0  0  0  0  0  0  0  0
  -23.4060   13.9830   28.2850 H   0  0  0  0  0  0  0  0  0  0  0  0
  -22.8660   13.5990   26.6720 H   0  0  0  0  0  0  0  0  0  0  0  0
  -22.1660   12.2460   28.1200 N   0  0  0  0  0  0  0  0  0  0  0  0
  -22.5010   11.5320   29.3520 C   0  0  0  0  0  0  0  0  0  0  0  0
  -23.4390   11.8920   29.7900 H   0  0  0  0  0  0  0  0  0  0  0  0
  -21.7220   11.6760   30.1090 H   0  0  0  0  0  0  0  0  0  0  0  0
  -22.6230   10.4610   29.1540 H   0  0  0  0  0  0  0  0  0  0  0  0
  -20.9690   12.1410   27.4550 C   0  0  0  0  0  0  0  0  0  0  0  0
  -20.8460   11.0460   26.6900 N   0  0  0  0  0  0  0  0  0  0  0  0
  -21.6450   10.4030   26.6960 H   0  0  0  0  0  0  0  0  0  0  0  0
  -19.7350   10.7810   25.9400 C   0  0  0  0  0  0  0  0  0  0  0  0
  -19.7630    9.8820   25.3750 H   0  0  0  0  0  0  0  0  0  0  0  0
  -18.6820   11.6660   25.9590 C   0  0  0  0  0  0  0  0  0  0  0  0
  -17.8100   11.4810   25.3840 H   0  0  0  0  0  0  0  0  0  0  0  0
  -18.7580   12.8240   26.7530 C   0  0  0  0  0  0  0  0  0  0  0  0
  -17.9420   13.5060   26.7800 H   0  0  0  0  0  0  0  0  0  0  0  0
  -19.8880   13.0610   27.4990 C   0  0  0  0  0  0  0  0  0  0  0  0
  -19.9490   13.9190   28.1130 H   0  0  0  0  0  0  0  0  0  0  0  0
  1  2  1  0
  1  3  1  0
  3  4  1  0
  3  5  1  0
  3  6  1  0
  6  7  1  0
  6  8  1  0
  6  9  1  0
  9 10  1  0
  9 14  1  0
 10 11  1  0
 10 12  1  0
 10 13  1  0
 14 15  1  0
 14 23  2  0
 15 16  1  0
 15 17  1  0
 17 18  1  0
 17 19  1  0
 19 20  1  0
 19 21  2  0
 21 22  1  0
 21 23  1  0
 23 24  1  0
M  CHG  2  15   1  17  -1
M  END
>  <EnInt_ele>  (1) 
-15.83882

>  <EnInt_vdw>  (1) 
1.843864

>  <EnInt_tot>  (1) 
-13.99495

>  <Charges>  (1) 
-0.68 0.40 0.28 0.00 0.00 0.37 0.00 0.00 -0.84 0.37 0.00 0.00 0.00 0.46 -0.30 0.45 0.65 -0.02 -0.29 0.15 -0.15 0.15 -0.15 0.15

$$$$
