
     RDKit          3D

 25 27  0  0  0  0  0  0  0  0999 V2000
  -22.7770   12.9510   26.4660 O   0  0  0  0  0  0  0  0  0  0  0  0
  -22.5300   12.5690   27.6090 C   0  0  0  0  0  0  0  0  0  0  0  0
  -21.2460   12.2390   27.9220 N   0  0  0  0  0  0  0  0  0  0  0  0
  -21.0920   11.9390   28.8990 H   0  0  0  0  0  0  0  0  0  0  0  0
  -20.1480   12.2910   27.0160 C   0  0  0  0  0  0  0  0  0  0  0  0
  -20.3220   11.7210   26.1060 H   0  0  0  0  0  0  0  0  0  0  0  0
  -18.7330   12.3220   27.5250 C   0  0  0  0  0  0  0  0  0  0  0  0
  -18.5630   12.3480   28.5940 H   0  0  0  0  0  0  0  0  0  0  0  0
  -17.9850   11.7700   26.9680 H   0  0  0  0  0  0  0  0  0  0  0  0
  -19.3250   13.5420   26.8830 C   0  0  0  0  0  0  0  0  0  0  0  0
  -18.9840   13.8160   25.8920 H   0  0  0  0  0  0  0  0  0  0  0  0
  -19.5670   14.3850   27.5200 H   0  0  0  0  0  0  0  0  0  0  0  0
  -23.5140   12.4520   28.6600 C   0  0  0  0  0  0  0  0  0  0  0  0
  -23.2890   11.9910   29.9320 C   0  0  0  0  0  0  0  0  0  0  0  0
  -24.5160   12.0700   30.5480 N   0  0  0  0  0  0  0  0  0  0  0  0
  -25.4880   12.5560   29.7330 N   0  0  0  0  0  0  0  0  0  0  0  0
  -24.8680   12.7810   28.6000 C   0  0  0  0  0  0  0  0  0  0  0  0
  -25.3540   13.1710   27.7400 H   0  0  0  0  0  0  0  0  0  0  0  0
  -24.6890   11.6780   31.8810 C   0  0  0  0  0  0  0  0  0  0  0  0
  -25.6700   11.7740   32.2680 H   0  0  0  0  0  0  0  0  0  0  0  0
  -23.5730   11.2160   32.5250 C   0  0  0  0  0  0  0  0  0  0  0  0
  -23.6220   10.8990   33.5340 H   0  0  0  0  0  0  0  0  0  0  0  0
  -22.3100   11.1490   31.8480 C   0  0  0  0  0  0  0  0  0  0  0  0
  -21.4600   10.7880   32.3670 H   0  0  0  0  0  0  0  0  0  0  0  0
  -22.1550   11.5170   30.6050 N   0  0  0  0  0  0  0  0  0  0  0  0
  1  2  2  0
  2  3  1  0
  2 13  1  0
  3  4  1  0
  3  5  1  0
  5  6  1  0
  5  7  1  0
  5 10  1  0
  7  8  1  0
  7  9  1  0
  7 10  1  0
 10 11  1  0
 10 12  1  0
 13 14  2  0
 13 17  1  0
 14 15  1  0
 14 25  1  0
 15 16  1  0
 15 19  1  0
 16 17  2  0
 17 18  1  0
 19 20  1  0
 19 21  2  0
 21 22  1  0
 21 23  1  0
 23 24  1  0
 23 25  2  0
M  END
>  <EnInt_ele>  (1) 
-14.8535

>  <EnInt_vdw>  (1) 
4.536146

>  <EnInt_tot>  (1) 
-10.31735

>  <Charges>  (1) 
-0.57 0.72 -0.58 0.37 0.05 0.10 -0.20 0.10 0.10 -0.20 0.10 0.10 -0.09 -0.03 0.60 -0.71 0.14 0.15 -0.18 0.15 -0.14 0.15 0.38 0.06 -0.58

$$$$
