
     RDKit          3D

 23 24  0  0  0  0  0  0  0  0999 V2000
  -20.3610   14.4390   27.8080 O   0  0  0  0  0  0  0  0  0  0  0  0
  -20.5710   13.4830   27.0680 C   0  0  0  0  0  0  0  0  0  0  0  0
  -19.7000   13.3080   26.0050 N   0  0  0  0  0  0  0  0  0  0  0  0
  -19.7830   12.3270   24.9280 C   0  0  0  0  0  0  0  0  0  0  0  0
  -19.8520   11.3090   25.3150 H   0  0  0  0  0  0  0  0  0  0  0  0
  -20.6760   12.5510   24.3350 H   0  0  0  0  0  0  0  0  0  0  0  0
  -18.5040   12.5180   24.1220 C   0  0  0  0  0  0  0  0  0  0  0  0
  -17.7090   11.8790   24.5270 H   0  0  0  0  0  0  0  0  0  0  0  0
  -18.6320   12.2750   23.0650 H   0  0  0  0  0  0  0  0  0  0  0  0
  -18.1560   13.9800   24.3620 C   0  0  0  0  0  0  0  0  0  0  0  0
  -18.7670   14.6170   23.7110 H   0  0  0  0  0  0  0  0  0  0  0  0
  -17.1020   14.2060   24.1760 H   0  0  0  0  0  0  0  0  0  0  0  0
  -18.5530   14.1840   25.8140 C   0  0  0  0  0  0  0  0  0  0  0  0
  -18.7990   15.2260   26.0390 H   0  0  0  0  0  0  0  0  0  0  0  0
  -17.7620   13.8510   26.4970 H   0  0  0  0  0  0  0  0  0  0  0  0
  -21.7110   12.6030   27.2430 C   0  0  0  0  0  0  0  0  0  0  0  0
  -22.9530   13.0330   27.6070 C   0  0  0  0  0  0  0  0  0  0  0  0
  -23.3260   14.0050   27.8020 H   0  0  0  0  0  0  0  0  0  0  0  0
  -23.7140   11.9310   27.6970 N   0  0  0  0  0  0  0  0  0  0  0  0
  -24.7190   11.9230   27.9580 H   0  0  0  0  0  0  0  0  0  0  0  0
  -23.0140   10.7980   27.4130 N   0  0  0  0  0  0  0  0  0  0  0  0
  -21.8080   11.2120   27.1500 C   0  0  0  0  0  0  0  0  0  0  0  0
  -21.0110   10.5550   26.9110 H   0  0  0  0  0  0  0  0  0  0  0  0
  1  2  2  0
  2  3  1  0
  2 16  1  0
  3  4  1  0
  3 13  1  0
  4  5  1  0
  4  6  1  0
  4  7  1  0
  7  8  1  0
  7  9  1  0
  7 10  1  0
 10 11  1  0
 10 12  1  0
 10 13  1  0
 13 14  1  0
 13 15  1  0
 16 17  2  0
 16 22  1  0
 17 18  1  0
 17 19  1  0
 19 20  1  0
 19 21  1  0
 21 22  2  0
 22 23  1  0
M  END
>  <EnInt_ele>  (1) 
-11.69199

>  <EnInt_vdw>  (1) 
8.283545

>  <EnInt_tot>  (1) 
-3.408449

>  <Charges>  (1) 
-0.57 0.72 -0.66 0.30 0.00 0.00 0.00 0.00 0.00 0.00 0.00 0.00 0.30 0.00 0.00 -0.09 -0.30 0.15 0.30 0.27 -0.71 0.14 0.15

$$$$
