
     RDKit          3D

 20 20  0  0  0  0  0  0  0  0999 V2000
  -18.4220   14.9830   24.5710 O   0  0  0  0  0  0  0  0  0  0  0  0
  -18.4460   13.7740   24.8710 C   0  0  0  0  0  0  0  0  0  0  0  0
  -19.1690   13.3690   26.0100 N   0  0  0  0  0  0  0  0  0  0  0  0
  -19.8720   14.3720   26.8040 C   0  0  0  0  0  0  0  0  0  0  0  0
  -20.9380   14.1290   26.8340 H   0  0  0  0  0  0  0  0  0  0  0  0
  -19.7680   15.3780   26.3890 H   0  0  0  0  0  0  0  0  0  0  0  0
  -19.4590   14.3810   27.8180 H   0  0  0  0  0  0  0  0  0  0  0  0
  -19.2120   12.0090   26.3940 C   0  0  0  0  0  0  0  0  0  0  0  0
  -19.9700   11.6080   27.6290 C   0  0  0  0  0  0  0  0  0  0  0  0
  -19.5550   12.0990   28.5150 H   0  0  0  0  0  0  0  0  0  0  0  0
  -19.9180   10.5280   27.8050 H   0  0  0  0  0  0  0  0  0  0  0  0
  -21.0290   11.8690   27.5380 H   0  0  0  0  0  0  0  0  0  0  0  0
  -18.5740   11.0720   25.6290 C   0  0  0  0  0  0  0  0  0  0  0  0
  -18.6080   10.0500   25.9080 H   0  0  0  0  0  0  0  0  0  0  0  0
  -17.8500   11.4300   24.4600 C   0  0  0  0  0  0  0  0  0  0  0  0
  -17.3600   10.6820   23.8910 H   0  0  0  0  0  0  0  0  0  0  0  0
  -17.7780   12.7400   24.0910 C   0  0  0  0  0  0  0  0  0  0  0  0
  -17.0880   13.1630   22.9810 N   0  0  0  0  0  0  0  0  0  0  0  0
  -16.5990   12.5110   22.3860 H   0  0  0  0  0  0  0  0  0  0  0  0
  -17.0900   14.1600   22.7810 H   0  0  0  0  0  0  0  0  0  0  0  0
  1  2  2  0
  2  3  1  0
  2 17  1  0
  3  4  1  0
  3  8  1  0
  4  5  1  0
  4  6  1  0
  4  7  1  0
  8  9  1  0
  8 13  2  0
  9 10  1  0
  9 11  1  0
  9 12  1  0
 13 14  1  0
 13 15  1  0
 15 16  1  0
 15 17  2  0
 17 18  1  0
 18 19  1  0
 18 20  1  0
M  END
>  <EnInt_ele>  (1) 
-0.372737

>  <EnInt_vdw>  (1) 
3.169953

>  <EnInt_tot>  (1) 
2.797216

>  <Charges>  (1) 
-0.57 0.62 -0.47 0.30 0.00 0.00 0.00 -0.03 0.14 0.00 0.00 0.00 -0.15 0.15 -0.15 0.15 0.11 -0.90 0.40 0.40

$$$$
