
     RDKit          3D

 29 31  0  0  0  0  0  0  0  0999 V2000
  -20.2040   14.0380   26.3850 O   0  0  0  0  0  0  0  0  0  0  0  0
  -20.2970   12.8950   25.9960 C   0  0  0  0  0  0  0  0  0  0  0  0
  -21.0070   11.9600   26.6840 N   0  0  0  0  0  0  0  0  0  0  0  0
  -21.0140   11.0140   26.2940 H   0  0  0  0  0  0  0  0  0  0  0  0
  -21.7280   12.0810   27.8490 C   0  0  0  0  0  0  0  0  0  0  0  0
  -22.1110   13.6290   28.5370 S   0  0  0  0  0  0  0  0  0  0  0  0
  -22.9390   12.8000   29.8090 C   0  0  0  0  0  0  0  0  0  0  0  0
  -22.8530   11.4240   29.6020 C   0  0  0  0  0  0  0  0  0  0  0  0
  -22.1540   11.0260   28.4690 N   0  0  0  0  0  0  0  0  0  0  0  0
  -23.4630   10.5600   30.5260 C   0  0  0  0  0  0  0  0  0  0  0  0
  -23.4010    9.5140   30.3740 H   0  0  0  0  0  0  0  0  0  0  0  0
  -24.1370   11.0780   31.6220 C   0  0  0  0  0  0  0  0  0  0  0  0
  -24.5960   10.4230   32.3160 H   0  0  0  0  0  0  0  0  0  0  0  0
  -24.2080   12.4770   31.8060 C   0  0  0  0  0  0  0  0  0  0  0  0
  -24.8460   13.1040   32.8470 O   0  0  0  0  0  0  0  0  0  0  0  0
  -24.0770   13.3810   34.0120 C   0  0  0  0  0  0  0  0  0  0  0  0
  -23.2540   14.0680   33.7870 H   0  0  0  0  0  0  0  0  0  0  0  0
  -24.7330   13.8740   34.7360 H   0  0  0  0  0  0  0  0  0  0  0  0
  -23.7100   12.4570   34.4710 H   0  0  0  0  0  0  0  0  0  0  0  0
  -23.6150   13.3460   30.9090 C   0  0  0  0  0  0  0  0  0  0  0  0
  -23.6680   14.3940   31.0490 H   0  0  0  0  0  0  0  0  0  0  0  0
  -19.6660   12.4330   24.7410 C   0  0  0  0  0  0  0  0  0  0  0  0
  -20.3620   12.3560   23.9090 H   0  0  0  0  0  0  0  0  0  0  0  0
  -18.5040   11.4670   24.7620 C   0  0  0  0  0  0  0  0  0  0  0  0
  -18.1060   11.1350   25.7140 H   0  0  0  0  0  0  0  0  0  0  0  0
  -18.4490   10.7250   23.9760 H   0  0  0  0  0  0  0  0  0  0  0  0
  -18.2760   12.9020   24.3860 C   0  0  0  0  0  0  0  0  0  0  0  0
  -18.0690   13.1310   23.3480 H   0  0  0  0  0  0  0  0  0  0  0  0
  -17.7510   13.5360   25.0930 H   0  0  0  0  0  0  0  0  0  0  0  0
  1  2  2  0
  2  3  1  0
  2 22  1  0
  3  4  1  0
  3  5  1  0
  5  6  1  0
  5  9  2  0
  6  7  1  0
  7  8  2  0
  7 20  1  0
  8  9  1  0
  8 10  1  0
 10 11  1  0
 10 12  2  0
 12 13  1  0
 12 14  1  0
 14 15  1  0
 14 20  2  0
 15 16  1  0
 16 17  1  0
 16 18  1  0
 16 19  1  0
 20 21  1  0
 22 23  1  0
 22 24  1  0
 22 27  1  0
 24 25  1  0
 24 26  1  0
 24 27  1  0
 27 28  1  0
 27 29  1  0
M  END
>  <EnInt_ele>  (1) 
-10.37777

>  <EnInt_vdw>  (1) 
8.229008

>  <EnInt_tot>  (1) 
-2.148766

>  <Charges>  (1) 
-0.57 0.63 -0.49 0.37 0.44 -0.08 0.04 0.23 -0.57 -0.15 0.15 -0.15 0.15 0.08 -0.36 0.28 0.00 0.00 0.00 -0.15 0.15 -0.10 0.10 -0.20 0.10 0.10 -0.20 0.10 0.10

$$$$
