
     RDKit          3D

 21 21  0  0  0  0  0  0  0  0999 V2000
  -17.2090   15.5330   25.5870 Br  0  0  0  0  0  0  0  0  0  0  0  0
  -18.6040   14.3800   26.1380 C   0  0  0  0  0  0  0  0  0  0  0  0
  -18.7960   13.1610   25.4970 C   0  0  0  0  0  0  0  0  0  0  0  0
  -18.1690   12.8670   24.6980 H   0  0  0  0  0  0  0  0  0  0  0  0
  -19.8280   12.3240   25.9100 C   0  0  0  0  0  0  0  0  0  0  0  0
  -19.9870   11.1430   25.2320 O   0  0  0  0  0  0  0  0  0  0  0  0
  -18.8840   10.2060   25.2760 C   0  0  0  0  0  0  0  0  0  0  0  0
  -19.0790    9.4180   24.5520 H   0  0  0  0  0  0  0  0  0  0  0  0
  -18.8220    9.8020   26.2860 H   0  0  0  0  0  0  0  0  0  0  0  0
  -17.9620   10.7300   25.0250 H   0  0  0  0  0  0  0  0  0  0  0  0
  -20.6730   12.6740   26.9720 C   0  0  0  0  0  0  0  0  0  0  0  0
  -21.7910   11.7630   27.4780 C   0  0  0  0  0  0  0  0  0  0  0  0
  -21.6760   11.6250   28.5420 H   0  0  0  0  0  0  0  0  0  0  0  0
  -21.8060   10.8270   26.9440 H   0  0  0  0  0  0  0  0  0  0  0  0
  -23.1210   12.4460   27.2520 C   0  0  0  0  0  0  0  0  0  0  0  0
  -23.6650   12.2940   26.1350 O   0  0  0  0  0  0  0  0  0  0  0  0
  -23.5740   13.1630   28.1720 O   0  0  0  0  0  0  0  0  0  0  0  0
  -20.4700   13.9040   27.5970 C   0  0  0  0  0  0  0  0  0  0  0  0
  -21.1140   14.1960   28.3900 H   0  0  0  0  0  0  0  0  0  0  0  0
  -19.4450   14.7520   27.1860 C   0  0  0  0  0  0  0  0  0  0  0  0
  -19.3090   15.6840   27.6690 H   0  0  0  0  0  0  0  0  0  0  0  0
  1  2  1  0
  2  3  2  0
  2 20  1  0
  3  4  1  0
  3  5  1  0
  5  6  1  0
  5 11  2  0
  6  7  1  0
  7  8  1  0
  7  9  1  0
  7 10  1  0
 11 12  1  0
 11 18  1  0
 12 13  1  0
 12 14  1  0
 12 15  1  0
 15 16  1  0
 15 17  2  0
 18 19  1  0
 18 20  2  0
 20 21  1  0
M  END
>  <EnInt_ele>  (1) 
1.993551

>  <EnInt_vdw>  (1) 
8.355979

>  <EnInt_tot>  (1) 
10.34953

>  <Charges>  (1) 
-0.11 0.11 -0.15 0.15 0.08 -0.36 0.28 0.00 0.00 0.00 -0.14 0.21 0.00 0.00 0.66 -0.15 -0.57 -0.15 0.15 -0.15 0.15

$$$$
