
     RDKit          3D

 17 18  0  0  0  0  0  0  0  0999 V2000
  -17.2650   13.3550   23.4620 Br  0  0  0  0  0  0  0  0  0  0  0  0
  -18.4970   13.2840   24.8940 C   0  0  0  0  0  0  0  0  0  0  0  0
  -19.2280   12.1210   25.1260 C   0  0  0  0  0  0  0  0  0  0  0  0
  -19.1090   11.2670   24.5120 H   0  0  0  0  0  0  0  0  0  0  0  0
  -20.1210   12.1190   26.1890 C   0  0  0  0  0  0  0  0  0  0  0  0
  -20.9460   11.0830   26.6020 N   0  0  0  0  0  0  0  0  0  0  0  0
  -21.0290   10.1480   26.1850 H   0  0  0  0  0  0  0  0  0  0  0  0
  -21.6820   11.4470   27.6790 C   0  0  0  0  0  0  0  0  0  0  0  0
  -22.4630   10.6760   28.1840 O   0  0  0  0  0  0  0  0  0  0  0  0
  -21.3330   12.8840   28.0570 C   0  0  0  0  0  0  0  0  0  0  0  0
  -22.2180   13.5180   27.9660 H   0  0  0  0  0  0  0  0  0  0  0  0
  -20.9080   12.9100   29.0630 H   0  0  0  0  0  0  0  0  0  0  0  0
  -20.3090   13.2090   27.0140 C   0  0  0  0  0  0  0  0  0  0  0  0
  -19.5780   14.3700   26.7850 C   0  0  0  0  0  0  0  0  0  0  0  0
  -19.7070   15.2190   27.4070 H   0  0  0  0  0  0  0  0  0  0  0  0
  -18.6720   14.4040   25.7220 C   0  0  0  0  0  0  0  0  0  0  0  0
  -18.1100   15.2830   25.5370 H   0  0  0  0  0  0  0  0  0  0  0  0
  1  2  1  0
  2  3  2  0
  2 16  1  0
  3  4  1  0
  3  5  1  0
  5  6  1  0
  5 13  2  0
  6  7  1  0
  6  8  1  0
  8  9  2  0
  8 10  1  0
 10 11  1  0
 10 12  1  0
 10 13  1  0
 13 14  1  0
 14 15  1  0
 14 16  2  0
 16 17  1  0
M  END
>  <EnInt_ele>  (1) 
-0.06616732

>  <EnInt_vdw>  (1) 
7.456098

>  <EnInt_tot>  (1) 
7.389931

>  <Charges>  (1) 
-0.11 0.11 -0.15 0.15 0.12 -0.55 0.37 0.57 -0.57 0.21 0.00 0.00 -0.14 -0.15 0.15 -0.15 0.15

$$$$
