
     RDKit          3D

 26 28  0  0  0  0  0  0  0  0999 V2000
  -22.4930   14.0590   28.7980 O   0  0  0  0  0  0  0  0  0  0  0  0
  -21.9620   12.9690   28.6130 C   0  0  0  0  0  0  0  0  0  0  0  0
  -22.4290   11.8990   29.3340 N   0  0  0  0  0  0  0  0  0  0  0  0
  -22.0700   10.9680   29.1050 H   0  0  0  0  0  0  0  0  0  0  0  0
  -23.4100   12.0100   30.3670 C   0  0  0  0  0  0  0  0  0  0  0  0
  -24.2470   12.6470   30.0890 H   0  0  0  0  0  0  0  0  0  0  0  0
  -23.0070   12.0310   31.8170 C   0  0  0  0  0  0  0  0  0  0  0  0
  -21.9590   11.9180   32.0700 H   0  0  0  0  0  0  0  0  0  0  0  0
  -23.5570   12.6840   32.4830 H   0  0  0  0  0  0  0  0  0  0  0  0
  -23.7210   10.8370   31.2560 C   0  0  0  0  0  0  0  0  0  0  0  0
  -24.7570   10.6820   31.5340 H   0  0  0  0  0  0  0  0  0  0  0  0
  -23.1570    9.9230   31.1160 H   0  0  0  0  0  0  0  0  0  0  0  0
  -20.8900   12.7570   27.6160 C   0  0  0  0  0  0  0  0  0  0  0  0
  -20.8810   11.5460   26.8980 C   0  0  0  0  0  0  0  0  0  0  0  0
  -21.6200   10.8070   27.0720 H   0  0  0  0  0  0  0  0  0  0  0  0
  -19.8860   11.3350   25.9580 C   0  0  0  0  0  0  0  0  0  0  0  0
  -19.7360   10.2250   25.1890 O   0  0  0  0  0  0  0  0  0  0  0  0
  -18.5610   10.5760   24.4290 C   0  0  0  0  0  0  0  0  0  0  0  0
  -17.7820    9.8310   24.6220 H   0  0  0  0  0  0  0  0  0  0  0  0
  -18.8130   10.5540   23.3630 H   0  0  0  0  0  0  0  0  0  0  0  0
  -18.0400   11.8830   24.7530 O   0  0  0  0  0  0  0  0  0  0  0  0
  -18.9210   12.2790   25.7090 C   0  0  0  0  0  0  0  0  0  0  0  0
  -18.9020   13.4890   26.3880 C   0  0  0  0  0  0  0  0  0  0  0  0
  -18.1540   14.2090   26.1770 H   0  0  0  0  0  0  0  0  0  0  0  0
  -19.8940   13.7270   27.3410 C   0  0  0  0  0  0  0  0  0  0  0  0
  -19.9020   14.6550   27.8530 H   0  0  0  0  0  0  0  0  0  0  0  0
  1  2  2  0
  2  3  1  0
  2 13  1  0
  3  4  1  0
  3  5  1  0
  5  6  1  0
  5  7  1  0
  5 10  1  0
  7  8  1  0
  7  9  1  0
  7 10  1  0
 10 11  1  0
 10 12  1  0
 13 14  2  0
 13 25  1  0
 14 15  1  0
 14 16  1  0
 16 17  1  0
 16 22  2  0
 17 18  1  0
 18 19  1  0
 18 20  1  0
 18 21  1  0
 21 22  1  0
 22 23  1  0
 23 24  1  0
 23 25  2  0
 25 26  1  0
M  END
>  <EnInt_ele>  (1) 
-13.30016

>  <EnInt_vdw>  (1) 
4.655398

>  <EnInt_tot>  (1) 
-8.644763

>  <Charges>  (1) 
-0.57 0.54 -0.58 0.37 0.05 0.10 -0.20 0.10 0.10 -0.20 0.10 0.10 0.09 -0.15 0.15 0.08 -0.36 0.56 0.00 0.00 -0.36 0.08 -0.15 0.15 -0.15 0.15

$$$$
