
     RDKit          3D

 23 23  0  0  0  0  0  0  0  0999 V2000
  -18.5560   11.3870   24.4790 S   0  0  0  0  0  0  0  0  0  0  0  0
  -19.2190   11.7460   23.2360 O   0  0  0  0  0  0  0  0  0  0  0  0
  -17.1330   11.6080   24.6490 O   0  0  0  0  0  0  0  0  0  0  0  0
  -18.8920    9.6730   24.7900 C   0  0  0  0  0  0  0  0  0  0  0  0
  -19.9720    9.5130   24.7740 H   0  0  0  0  0  0  0  0  0  0  0  0
  -18.4730    9.3940   25.7590 H   0  0  0  0  0  0  0  0  0  0  0  0
  -18.4190    9.0870   24.0010 H   0  0  0  0  0  0  0  0  0  0  0  0
  -19.3880   12.2100   25.8080 C   0  0  0  0  0  0  0  0  0  0  0  0
  -19.0520   13.5080   26.2300 C   0  0  0  0  0  0  0  0  0  0  0  0
  -18.0120   14.1890   25.6010 N   0  0  0  0  0  0  0  0  0  0  0  0
  -17.6080   13.7500   24.7610 H   0  0  0  0  0  0  0  0  0  0  0  0
  -17.4370   15.4370   26.0420 C   0  0  0  0  0  0  0  0  0  0  0  0
  -18.1950   16.2260   26.0930 H   0  0  0  0  0  0  0  0  0  0  0  0
  -16.6700   15.7570   25.3310 H   0  0  0  0  0  0  0  0  0  0  0  0
  -16.9580   15.3270   27.0200 H   0  0  0  0  0  0  0  0  0  0  0  0
  -19.7770   14.1240   27.2590 C   0  0  0  0  0  0  0  0  0  0  0  0
  -19.5490   15.1110   27.5620 H   0  0  0  0  0  0  0  0  0  0  0  0
  -20.8060   13.4390   27.8910 C   0  0  0  0  0  0  0  0  0  0  0  0
  -21.3480   13.9020   28.6750 H   0  0  0  0  0  0  0  0  0  0  0  0
  -21.1260   12.1430   27.5000 C   0  0  0  0  0  0  0  0  0  0  0  0
  -21.9070   11.6180   27.9900 H   0  0  0  0  0  0  0  0  0  0  0  0
  -20.4220   11.5370   26.4640 C   0  0  0  0  0  0  0  0  0  0  0  0
  -20.6740   10.5500   26.1670 H   0  0  0  0  0  0  0  0  0  0  0  0
  1  2  2  0
  1  3  2  0
  1  4  1  0
  1  8  1  0
  4  5  1  0
  4  6  1  0
  4  7  1  0
  8  9  2  0
  8 22  1  0
  9 10  1  0
  9 16  1  0
 10 11  1  0
 10 12  1  0
 12 13  1  0
 12 14  1  0
 12 15  1  0
 16 17  1  0
 16 18  2  0
 18 19  1  0
 18 20  1  0
 20 21  1  0
 20 22  2  0
 22 23  1  0
M  END
>  <EnInt_ele>  (1) 
17.16672

>  <EnInt_vdw>  (1) 
-0.7590353

>  <EnInt_tot>  (1) 
16.40768

>  <Charges>  (1) 
1.20 -0.65 -0.65 0.10 0.00 0.00 0.00 -0.01 0.10 -0.87 0.40 0.37 0.00 0.00 0.00 -0.15 0.15 -0.15 0.15 -0.15 0.15 -0.15 0.15

$$$$
