
     RDKit          3D

 29 30  0  0  0  0  0  0  0  0999 V2000
  -21.3610   12.7250   25.1140 F   0  0  0  0  0  0  0  0  0  0  0  0
  -20.3530   12.4160   25.9440 C   0  0  0  0  0  0  0  0  0  0  0  0
  -20.4960   12.6440   27.3140 C   0  0  0  0  0  0  0  0  0  0  0  0
  -21.7670   13.2180   27.8860 C   0  0  0  0  0  0  0  0  0  0  0  0
  -22.3320   13.7400   27.1040 H   0  0  0  0  0  0  0  0  0  0  0  0
  -21.4910   14.0010   28.6060 H   0  0  0  0  0  0  0  0  0  0  0  0
  -22.6630   12.1840   28.5590 C   0  0  0  0  0  0  0  0  0  0  0  0
  -22.8120   12.3100   30.0420 C   0  0  0  0  0  0  0  0  0  0  0  0
  -22.3100   11.5400   30.8360 O   0  0  0  0  0  0  0  0  0  0  0  0
  -23.5690   13.3400   30.4940 N   0  0  0  0  0  0  0  0  0  0  0  0
  -24.0140   13.9320   29.8060 H   0  0  0  0  0  0  0  0  0  0  0  0
  -23.7790   13.6100   31.8940 C   0  0  0  0  0  0  0  0  0  0  0  0
  -24.3360   12.7810   32.3370 H   0  0  0  0  0  0  0  0  0  0  0  0
  -22.8130   13.7090   32.3950 H   0  0  0  0  0  0  0  0  0  0  0  0
  -24.3480   14.5380   31.9910 H   0  0  0  0  0  0  0  0  0  0  0  0
  -22.8380   10.7840   27.9630 C   0  0  0  0  0  0  0  0  0  0  0  0
  -23.0230    9.9560   28.6420 H   0  0  0  0  0  0  0  0  0  0  0  0
  -22.2840   10.4920   27.0800 H   0  0  0  0  0  0  0  0  0  0  0  0
  -23.9250   11.7900   27.7880 C   0  0  0  0  0  0  0  0  0  0  0  0
  -24.8450   11.6480   28.3440 H   0  0  0  0  0  0  0  0  0  0  0  0
  -24.0800   12.1940   26.7940 H   0  0  0  0  0  0  0  0  0  0  0  0
  -19.4220   12.3220   28.1450 C   0  0  0  0  0  0  0  0  0  0  0  0
  -19.4900   12.4840   29.1900 H   0  0  0  0  0  0  0  0  0  0  0  0
  -18.2500   11.7880   27.6090 C   0  0  0  0  0  0  0  0  0  0  0  0
  -17.4390   11.5470   28.2520 H   0  0  0  0  0  0  0  0  0  0  0  0
  -18.1330   11.5680   26.2370 C   0  0  0  0  0  0  0  0  0  0  0  0
  -17.2370   11.1630   25.8380 H   0  0  0  0  0  0  0  0  0  0  0  0
  -19.1930   11.8850   25.3940 C   0  0  0  0  0  0  0  0  0  0  0  0
  -19.1230   11.7260   24.3500 H   0  0  0  0  0  0  0  0  0  0  0  0
  1  2  1  0
  2  3  2  0
  2 28  1  0
  3  4  1  0
  3 22  1  0
  4  5  1  0
  4  6  1  0
  4  7  1  0
  7  8  1  0
  7 16  1  0
  7 19  1  0
  8  9  2  0
  8 10  1  0
 10 11  1  0
 10 12  1  0
 12 13  1  0
 12 14  1  0
 12 15  1  0
 16 17  1  0
 16 18  1  0
 16 19  1  0
 19 20  1  0
 19 21  1  0
 22 23  1  0
 22 24  2  0
 24 25  1  0
 24 26  1  0
 26 27  1  0
 26 28  2  0
 28 29  1  0
M  END
>  <EnInt_ele>  (1) 
-4.086559

>  <EnInt_vdw>  (1) 
6.512949

>  <EnInt_tot>  (1) 
2.42639

>  <Charges>  (1) 
-0.19 0.19 -0.14 0.24 0.00 0.00 -0.10 0.63 -0.57 -0.73 0.37 0.30 0.00 0.00 0.00 -0.20 0.10 0.10 -0.20 0.10 0.10 -0.15 0.15 -0.15 0.15 -0.15 0.15 -0.15 0.15

$$$$
