
     RDKit          3D

 22 22  0  0  0  0  0  0  0  0999 V2000
  -18.0320   10.0800   23.7920 O   0  0  0  0  0  0  0  0  0  0  0  0
  -17.6670   10.7540   23.1920 H   0  0  0  0  0  0  0  0  0  0  0  0
  -19.0360   10.7190   24.5750 C   0  0  0  0  0  0  0  0  0  0  0  0
  -19.7740   11.1710   23.9030 H   0  0  0  0  0  0  0  0  0  0  0  0
  -19.5290    9.9460   25.1730 H   0  0  0  0  0  0  0  0  0  0  0  0
  -18.4000   11.7590   25.4960 C   0  0  0  0  0  0  0  0  0  0  0  0
  -17.4550   11.3580   25.8820 H   0  0  0  0  0  0  0  0  0  0  0  0
  -18.1630   12.6670   24.9280 H   0  0  0  0  0  0  0  0  0  0  0  0
  -19.2780   12.1280   26.6500 C   0  0  0  0  0  0  0  0  0  0  0  0
  -20.5740   12.5120   26.6010 C   0  0  0  0  0  0  0  0  0  0  0  0
  -21.2380   12.6420   25.7880 H   0  0  0  0  0  0  0  0  0  0  0  0
  -20.9440   12.7340   27.8820 N   0  0  0  0  0  0  0  0  0  0  0  0
  -22.2360   13.1590   28.3730 C   0  0  0  0  0  0  0  0  0  0  0  0
  -22.1040   14.1280   28.8660 H   0  0  0  0  0  0  0  0  0  0  0  0
  -22.8890   13.3090   27.5070 H   0  0  0  0  0  0  0  0  0  0  0  0
  -22.8410   12.1540   29.3370 C   0  0  0  0  0  0  0  0  0  0  0  0
  -22.1920   12.0030   30.2080 H   0  0  0  0  0  0  0  0  0  0  0  0
  -22.9850   11.1810   28.8560 H   0  0  0  0  0  0  0  0  0  0  0  0
  -23.8140   12.5070   29.6940 H   0  0  0  0  0  0  0  0  0  0  0  0
  -19.9240   12.5090   28.7480 N   0  0  0  0  0  0  0  0  0  0  0  0
  -18.9230   12.1400   27.9960 C   0  0  0  0  0  0  0  0  0  0  0  0
  -17.9640   11.8900   28.3790 H   0  0  0  0  0  0  0  0  0  0  0  0
  1  2  1  0
  1  3  1  0
  3  4  1  0
  3  5  1  0
  3  6  1  0
  6  7  1  0
  6  8  1  0
  6  9  1  0
  9 10  2  0
  9 21  1  0
 10 11  1  0
 10 12  1  0
 12 13  1  0
 12 20  1  0
 13 14  1  0
 13 15  1  0
 13 16  1  0
 16 17  1  0
 16 18  1  0
 16 19  1  0
 20 21  2  0
 21 22  1  0
M  END
>  <EnInt_ele>  (1) 
-13.84279

>  <EnInt_vdw>  (1) 
1.637238

>  <EnInt_tot>  (1) 
-12.20555

>  <Charges>  (1) 
-0.68 0.40 0.28 0.00 0.00 0.18 0.00 0.00 -0.18 -0.30 0.15 0.31 0.26 0.00 0.00 0.00 0.00 0.00 0.00 -0.71 0.14 0.15

$$$$
