
     RDKit          3D

 25 26  0  0  0  0  0  0  0  0999 V2000
  -23.6730   12.8210   26.2750 O   0  0  0  0  0  0  0  0  0  0  0  0
  -23.0200   13.2320   27.2320 C   0  0  0  0  0  0  0  0  0  0  0  0
  -23.6520   13.9600   28.2110 N   0  0  0  0  0  0  0  0  0  0  0  0
  -23.0280   14.2620   28.9720 H   0  0  0  0  0  0  0  0  0  0  0  0
  -24.9880   14.3140   28.2720 C   0  0  0  0  0  0  0  0  0  0  0  0
  -25.4950   15.0140   29.3070 C   0  0  0  0  0  0  0  0  0  0  0  0
  -25.0510   15.3990   30.1860 H   0  0  0  0  0  0  0  0  0  0  0  0
  -26.8100   15.1660   29.0120 N   0  0  0  0  0  0  0  0  0  0  0  0
  -27.8180   15.8410   29.7880 C   0  0  0  0  0  0  0  0  0  0  0  0
  -27.3730   16.2260   30.7090 H   0  0  0  0  0  0  0  0  0  0  0  0
  -28.6080   15.1240   30.0260 H   0  0  0  0  0  0  0  0  0  0  0  0
  -28.2160   16.6670   29.1930 H   0  0  0  0  0  0  0  0  0  0  0  0
  -27.1450   14.5850   27.8300 N   0  0  0  0  0  0  0  0  0  0  0  0
  -26.0300   14.0660   27.3790 C   0  0  0  0  0  0  0  0  0  0  0  0
  -25.9560   13.5380   26.4640 H   0  0  0  0  0  0  0  0  0  0  0  0
  -21.6020   13.0090   27.4240 C   0  0  0  0  0  0  0  0  0  0  0  0
  -21.0350   13.0750   28.6030 N   0  0  0  0  0  0  0  0  0  0  0  0
  -19.7400   12.8240   28.4310 O   0  0  0  0  0  0  0  0  0  0  0  0
  -19.4730   12.5970   27.1410 C   0  0  0  0  0  0  0  0  0  0  0  0
  -18.0750   12.3030   26.7870 C   0  0  0  0  0  0  0  0  0  0  0  0
  -17.9680   12.1430   25.7100 H   0  0  0  0  0  0  0  0  0  0  0  0
  -17.7320   11.4010   27.3010 H   0  0  0  0  0  0  0  0  0  0  0  0
  -17.4230   13.1330   27.0740 H   0  0  0  0  0  0  0  0  0  0  0  0
  -20.6270   12.7070   26.4710 C   0  0  0  0  0  0  0  0  0  0  0  0
  -20.7740   12.5880   25.4290 H   0  0  0  0  0  0  0  0  0  0  0  0
  1  2  2  0
  2  3  1  0
  2 16  1  0
  3  4  1  0
  3  5  1  0
  5  6  2  0
  5 14  1  0
  6  7  1  0
  6  8  1  0
  8  9  1  0
  8 13  1  0
  9 10  1  0
  9 11  1  0
  9 12  1  0
 13 14  2  0
 14 15  1  0
 16 17  2  0
 16 24  1  0
 17 18  1  0
 18 19  1  0
 19 20  1  0
 19 24  2  0
 20 21  1  0
 20 22  1  0
 20 23  1  0
 24 25  1  0
M  END
>  <EnInt_ele>  (1) 
-15.35068

>  <EnInt_vdw>  (1) 
9.067165

>  <EnInt_tot>  (1) 
-6.283518

>  <Charges>  (1) 
-0.57 0.72 -0.49 0.37 0.06 -0.30 0.15 0.31 0.26 0.00 0.00 0.00 -0.71 0.14 0.15 0.20 -0.41 -0.02 -0.04 0.18 0.00 0.00 0.00 -0.15 0.15

$$$$
