
     RDKit          3D

 32 33  0  0  0  0  0  0  0  0999 V2000
  -15.7910   15.8660   27.4340 O   0  0  0  0  0  0  0  0  0  0  0  0
  -16.1050   16.1220   26.2810 C   0  0  0  0  0  0  0  0  0  0  0  0
  -15.4860   17.0280   25.4790 O   0  0  0  0  0  0  0  0  0  0  0  0
  -14.5710   17.8900   26.1590 C   0  0  0  0  0  0  0  0  0  0  0  0
  -13.7750   17.3070   26.6320 H   0  0  0  0  0  0  0  0  0  0  0  0
  -15.1000   18.4980   26.9010 H   0  0  0  0  0  0  0  0  0  0  0  0
  -14.1220   18.5580   25.4190 H   0  0  0  0  0  0  0  0  0  0  0  0
  -17.1470   15.5640   25.6050 N   0  0  0  0  0  0  0  0  0  0  0  0
  -17.2910   15.9640   24.6730 H   0  0  0  0  0  0  0  0  0  0  0  0
  -18.0370   14.5470   26.0140 C   0  0  0  0  0  0  0  0  0  0  0  0
  -18.0530   14.0190   27.3070 C   0  0  0  0  0  0  0  0  0  0  0  0
  -17.3760   14.3670   28.0410 H   0  0  0  0  0  0  0  0  0  0  0  0
  -18.9640   13.0180   27.6250 C   0  0  0  0  0  0  0  0  0  0  0  0
  -18.9750   12.6170   28.6070 H   0  0  0  0  0  0  0  0  0  0  0  0
  -19.8570   12.5370   26.6660 C   0  0  0  0  0  0  0  0  0  0  0  0
  -20.8320   11.4340   27.0130 C   0  0  0  0  0  0  0  0  0  0  0  0
  -20.3380   10.7090   27.6740 H   0  0  0  0  0  0  0  0  0  0  0  0
  -21.0820   10.8590   26.1120 H   0  0  0  0  0  0  0  0  0  0  0  0
  -22.0990   11.9350   27.6570 C   0  0  0  0  0  0  0  0  0  0  0  0
  -22.7280   13.0920   27.2120 C   0  0  0  0  0  0  0  0  0  0  0  0
  -22.3360   13.6390   26.3950 H   0  0  0  0  0  0  0  0  0  0  0  0
  -23.8830   13.5390   27.8450 C   0  0  0  0  0  0  0  0  0  0  0  0
  -24.3680   14.4220   27.5120 H   0  0  0  0  0  0  0  0  0  0  0  0
  -24.4160   12.8880   28.8770 N   0  0  0  0  0  0  0  0  0  0  0  0
  -23.8300   11.7790   29.3230 C   0  0  0  0  0  0  0  0  0  0  0  0
  -24.2720   11.2800   30.1490 H   0  0  0  0  0  0  0  0  0  0  0  0
  -22.6720   11.2760   28.7380 C   0  0  0  0  0  0  0  0  0  0  0  0
  -22.2290   10.3930   29.1240 H   0  0  0  0  0  0  0  0  0  0  0  0
  -19.8230   13.0650   25.3720 C   0  0  0  0  0  0  0  0  0  0  0  0
  -20.4920   12.7060   24.6330 H   0  0  0  0  0  0  0  0  0  0  0  0
  -18.9150   14.0660   25.0440 C   0  0  0  0  0  0  0  0  0  0  0  0
  -18.8970   14.4660   24.0630 H   0  0  0  0  0  0  0  0  0  0  0  0
  1  2  2  0
  2  3  1  0
  2  8  1  0
  3  4  1  0
  4  5  1  0
  4  6  1  0
  4  7  1  0
  8  9  1  0
  8 10  1  0
 10 11  2  0
 10 31  1  0
 11 12  1  0
 11 13  1  0
 13 14  1  0
 13 15  2  0
 15 16  1  0
 15 29  1  0
 16 17  1  0
 16 18  1  0
 16 19  1  0
 19 20  2  0
 19 27  1  0
 20 21  1  0
 20 22  1  0
 22 23  1  0
 22 24  2  0
 24 25  1  0
 25 26  1  0
 25 27  2  0
 27 28  1  0
 29 30  1  0
 29 31  2  0
 31 32  1  0
M  END
>  <EnInt_ele>  (1) 
-5.292865

>  <EnInt_vdw>  (1) 
8.387065

>  <EnInt_tot>  (1) 
3.094199

>  <Charges>  (1) 
-0.57 0.78 -0.43 0.28 0.00 0.00 0.00 -0.55 0.37 0.12 -0.15 0.15 -0.15 0.15 -0.14 0.29 0.00 0.00 -0.14 -0.15 0.15 0.16 0.15 -0.62 0.16 0.15 -0.15 0.15 -0.15 0.15 -0.15 0.15

$$$$
