
     RDKit          3D

 27 28  0  0  0  0  0  0  0  0999 V2000
  -18.8240   14.8300   26.0590 O   0  0  0  0  0  0  0  0  0  0  0  0
  -17.5340   15.1950   26.5320 C   0  0  0  0  0  0  0  0  0  0  0  0
  -17.5300   16.2790   26.6880 H   0  0  0  0  0  0  0  0  0  0  0  0
  -16.7610   14.9650   25.7900 H   0  0  0  0  0  0  0  0  0  0  0  0
  -17.3150   14.7210   27.4940 H   0  0  0  0  0  0  0  0  0  0  0  0
  -19.0650   13.5040   25.7690 C   0  0  0  0  0  0  0  0  0  0  0  0
  -20.1150   12.9030   26.4790 C   0  0  0  0  0  0  0  0  0  0  0  0
  -20.3760   11.5460   26.2330 C   0  0  0  0  0  0  0  0  0  0  0  0
  -21.3520   10.7400   26.8670 N   0  0  0  0  0  0  0  0  0  0  0  0
  -21.4610    9.7960   26.4780 H   0  0  0  0  0  0  0  0  0  0  0  0
  -22.1950   10.9280   27.9160 C   0  0  0  0  0  0  0  0  0  0  0  0
  -22.8620    9.9510   28.1670 O   0  0  0  0  0  0  0  0  0  0  0  0
  -22.2280   12.1770   28.7270 C   0  0  0  0  0  0  0  0  0  0  0  0
  -23.1390   12.1440   29.3370 H   0  0  0  0  0  0  0  0  0  0  0  0
  -21.3730   12.1860   29.4120 H   0  0  0  0  0  0  0  0  0  0  0  0
  -22.2780   13.3940   27.8390 C   0  0  0  0  0  0  0  0  0  0  0  0
  -22.9150   13.2300   26.9610 H   0  0  0  0  0  0  0  0  0  0  0  0
  -22.7220   14.2200   28.4060 H   0  0  0  0  0  0  0  0  0  0  0  0
  -20.8800   13.8060   27.4220 C   0  0  0  0  0  0  0  0  0  0  0  0
  -20.2610   13.9700   28.3140 H   0  0  0  0  0  0  0  0  0  0  0  0
  -21.0090   14.7850   26.9420 H   0  0  0  0  0  0  0  0  0  0  0  0
  -19.6160   10.8220   25.3120 C   0  0  0  0  0  0  0  0  0  0  0  0
  -19.8280    9.7980   25.1390 H   0  0  0  0  0  0  0  0  0  0  0  0
  -18.5850   11.4400   24.6180 C   0  0  0  0  0  0  0  0  0  0  0  0
  -18.0110   10.8880   23.9180 H   0  0  0  0  0  0  0  0  0  0  0  0
  -18.3060   12.7830   24.8420 C   0  0  0  0  0  0  0  0  0  0  0  0
  -17.5190   13.2470   24.3090 H   0  0  0  0  0  0  0  0  0  0  0  0
  1  2  1  0
  1  6  1  0
  2  3  1  0
  2  4  1  0
  2  5  1  0
  6  7  2  0
  6 26  1  0
  7  8  1  0
  7 19  1  0
  8  9  1  0
  8 22  2  0
  9 10  1  0
  9 11  1  0
 11 12  2  0
 11 13  1  0
 13 14  1  0
 13 15  1  0
 13 16  1  0
 16 17  1  0
 16 18  1  0
 16 19  1  0
 19 20  1  0
 19 21  1  0
 22 23  1  0
 22 24  1  0
 24 25  1  0
 24 26  2  0
 26 27  1  0
M  END
>  <EnInt_ele>  (1) 
1.776522

>  <EnInt_vdw>  (1) 
2.090289

>  <EnInt_tot>  (1) 
3.866811

>  <Charges>  (1) 
-0.36 0.28 0.00 0.00 0.00 0.08 -0.14 0.12 -0.55 0.37 0.57 -0.57 0.06 0.00 0.00 0.00 0.00 0.00 0.14 0.00 0.00 -0.15 0.15 -0.15 0.15 -0.15 0.15

$$$$
