
     RDKit          3D

 23 24  0  0  1  0  0  0  0  0999 V2000
  -18.4050   17.3820   26.4210 C   0  0  0  0  0  0  0  0  0  0  0  0
  -19.1110   17.2800   25.5940 H   0  0  0  0  0  0  0  0  0  0  0  0
  -17.5130   17.9090   26.0720 H   0  0  0  0  0  0  0  0  0  0  0  0
  -18.8680   17.9280   27.2480 H   0  0  0  0  0  0  0  0  0  0  0  0
  -18.0220   16.0820   26.8980 N   0  0  0  0  0  0  0  0  0  0  0  0
  -16.9030   15.9400   27.6220 N   0  0  0  0  0  0  0  0  0  0  0  0
  -16.7940   14.6710   27.9440 N   0  0  0  0  0  0  0  0  0  0  0  0
  -17.8540   14.0320   27.4060 C   0  0  0  0  0  0  0  0  0  0  0  0
  -18.6260   14.9050   26.7380 C   0  0  0  0  0  0  0  0  0  0  0  0
  -19.8710   14.5940   25.9880 C   0  0  0  0  0  0  0  0  0  0  0  0
  -20.6300   15.3630   26.1650 H   0  0  0  0  0  0  0  0  0  0  0  0
  -19.6370   14.6190   24.9160 H   0  0  0  0  0  0  0  0  0  0  0  0
  -20.3710   13.1740   26.3500 C   0  0  0  0  0  0  0  0  0  0  0  0
  -21.3130   13.2220   27.5570 C   0  0  0  0  0  0  0  0  0  0  0  0
  -22.5100   13.5140   27.3350 O   0  0  0  0  0  0  0  0  0  0  0  0
  -20.8420   12.9290   28.6780 O   0  0  0  0  0  0  0  0  0  0  0  0
  -19.2060   12.1620   26.5000 C   0  0  0  0  0  0  0  0  0  0  0  0
  -19.5830   11.1650   26.7550 H   0  0  0  0  0  0  0  0  0  0  0  0
  -18.7140   12.0650   25.5220 H   0  0  0  0  0  0  0  0  0  0  0  0
  -18.1470   12.5900   27.5420 C   0  0  0  0  0  0  0  0  0  0  0  0
  -17.2350   11.9990   27.4010 H   0  0  0  0  0  0  0  0  0  0  0  0
  -18.5130   12.3920   28.5550 H   0  0  0  0  0  0  0  0  0  0  0  0
  -21.0060   12.8260   25.5230 H   0  0  0  0  0  0  0  0  0  0  0  0
  1  2  1  0
  1  3  1  0
  1  4  1  0
  1  5  1  0
  5  6  1  0
  5  9  1  0
  6  7  2  0
  7  8  1  0
  8  9  2  0
  8 20  1  0
  9 10  1  0
 10 11  1  0
 10 12  1  0
 10 13  1  0
 13 14  1  0
 13 17  1  0
 13 23  1  0
 14 15  1  0
 14 16  2  0
 17 18  1  0
 17 19  1  0
 17 20  1  0
 20 21  1  0
 20 22  1  0
M  END
>  <EnInt_ele>  (1) 
-5.043547

>  <EnInt_vdw>  (1) 
-0.6006504

>  <EnInt_tot>  (1) 
-5.644197

>  <Charges>  (1) 
0.26 0.00 0.00 0.00 0.31 -0.42 -0.23 0.05 -0.33 0.18 0.00 0.00 0.06 0.66 -0.15 -0.57 0.00 0.00 0.00 0.18 0.00 0.00 0.00

$$$$
