
     RDKit          3D

 22 22  0  0  0  0  0  0  0  0999 V2000
  -17.8800   10.2240   24.3490 O   0  0  0  0  0  0  0  0  0  0  0  0
  -18.0080   10.6660   23.4920 H   0  0  0  0  0  0  0  0  0  0  0  0
  -18.9540   10.6300   25.1920 C   0  0  0  0  0  0  0  0  0  0  0  0
  -19.8930   10.2470   24.7780 H   0  0  0  0  0  0  0  0  0  0  0  0
  -18.7910   10.1780   26.1750 H   0  0  0  0  0  0  0  0  0  0  0  0
  -18.9740   12.1520   25.3200 C   0  0  0  0  0  0  0  0  0  0  0  0
  -17.9540   12.5030   25.5210 H   0  0  0  0  0  0  0  0  0  0  0  0
  -19.2930   12.6040   24.3720 H   0  0  0  0  0  0  0  0  0  0  0  0
  -19.8780   12.6330   26.4110 C   0  0  0  0  0  0  0  0  0  0  0  0
  -20.8760   11.9440   27.0080 C   0  0  0  0  0  0  0  0  0  0  0  0
  -21.2420   10.9630   26.8550 H   0  0  0  0  0  0  0  0  0  0  0  0
  -21.4040   12.7780   27.9300 N   0  0  0  0  0  0  0  0  0  0  0  0
  -22.4980   12.5200   28.8420 C   0  0  0  0  0  0  0  0  0  0  0  0
  -23.0310   11.6340   28.4820 H   0  0  0  0  0  0  0  0  0  0  0  0
  -22.0660   12.2790   29.8190 H   0  0  0  0  0  0  0  0  0  0  0  0
  -23.4460   13.7010   28.9470 C   0  0  0  0  0  0  0  0  0  0  0  0
  -23.8830   13.9450   27.9720 H   0  0  0  0  0  0  0  0  0  0  0  0
  -22.9280   14.5940   29.3120 H   0  0  0  0  0  0  0  0  0  0  0  0
  -24.2620   13.4720   29.6390 H   0  0  0  0  0  0  0  0  0  0  0  0
  -20.7780   13.9810   27.9390 N   0  0  0  0  0  0  0  0  0  0  0  0
  -19.8550   13.8840   27.0200 C   0  0  0  0  0  0  0  0  0  0  0  0
  -19.1840   14.6720   26.7780 H   0  0  0  0  0  0  0  0  0  0  0  0
  1  2  1  0
  1  3  1  0
  3  4  1  0
  3  5  1  0
  3  6  1  0
  6  7  1  0
  6  8  1  0
  6  9  1  0
  9 10  2  0
  9 21  1  0
 10 11  1  0
 10 12  1  0
 12 13  1  0
 12 20  1  0
 13 14  1  0
 13 15  1  0
 13 16  1  0
 16 17  1  0
 16 18  1  0
 16 19  1  0
 20 21  2  0
 21 22  1  0
M  END
>  <EnInt_ele>  (1) 
-17.89251

>  <EnInt_vdw>  (1) 
2.041667

>  <EnInt_tot>  (1) 
-15.85084

>  <Charges>  (1) 
-0.68 0.40 0.28 0.00 0.00 0.18 0.00 0.00 -0.18 -0.30 0.15 0.31 0.26 0.00 0.00 0.00 0.00 0.00 0.00 -0.71 0.14 0.15

$$$$
