
     RDKit          3D

 24 25  0  0  0  0  0  0  0  0999 V2000
  -23.8960   12.9490   28.3080 S   0  0  0  0  0  0  0  0  0  0  0  0
  -25.0250   12.1780   28.7910 O   0  0  0  0  0  0  0  0  0  0  0  0
  -23.9430   13.6030   27.0100 O   0  0  0  0  0  0  0  0  0  0  0  0
  -22.4350   11.9240   28.3460 C   0  0  0  0  0  0  0  0  0  0  0  0
  -22.1550   11.7780   29.3930 H   0  0  0  0  0  0  0  0  0  0  0  0
  -22.6910   10.9610   27.8940 H   0  0  0  0  0  0  0  0  0  0  0  0
  -21.3320   12.5920   27.6030 C   0  0  0  0  0  0  0  0  0  0  0  0
  -20.8070   12.0920   26.4420 N   0  0  0  0  0  0  0  0  0  0  0  0
  -21.0730   11.2110   25.9790 H   0  0  0  0  0  0  0  0  0  0  0  0
  -19.8630   12.9590   26.0000 C   0  0  0  0  0  0  0  0  0  0  0  0
  -19.8550   13.9760   26.9320 C   0  0  0  0  0  0  0  0  0  0  0  0
  -20.7830   13.7180   27.9180 N   0  0  0  0  0  0  0  0  0  0  0  0
  -18.9720   15.0500   26.7590 C   0  0  0  0  0  0  0  0  0  0  0  0
  -18.9590   15.8330   27.4710 H   0  0  0  0  0  0  0  0  0  0  0  0
  -18.1270   15.0630   25.6560 C   0  0  0  0  0  0  0  0  0  0  0  0
  -17.4550   15.8700   25.5160 H   0  0  0  0  0  0  0  0  0  0  0  0
  -18.1550   14.0080   24.7140 C   0  0  0  0  0  0  0  0  0  0  0  0
  -17.5020   14.0380   23.8790 H   0  0  0  0  0  0  0  0  0  0  0  0
  -19.0250   12.9420   24.8760 C   0  0  0  0  0  0  0  0  0  0  0  0
  -19.0560   12.1440   24.1790 H   0  0  0  0  0  0  0  0  0  0  0  0
  -23.5360   14.1920   29.5230 C   0  0  0  0  0  0  0  0  0  0  0  0
  -23.3960   13.7070   30.4910 H   0  0  0  0  0  0  0  0  0  0  0  0
  -24.3820   14.8800   29.5680 H   0  0  0  0  0  0  0  0  0  0  0  0
  -22.6330   14.7280   29.2240 H   0  0  0  0  0  0  0  0  0  0  0  0
  1  2  2  0
  1  3  2  0
  1  4  1  0
  1 21  1  0
  4  5  1  0
  4  6  1  0
  4  7  1  0
  7  8  1  0
  7 12  2  0
  8  9  1  0
  8 10  1  0
 10 11  2  0
 10 19  1  0
 11 12  1  0
 11 13  1  0
 13 14  1  0
 13 15  2  0
 15 16  1  0
 15 17  1  0
 17 18  1  0
 17 19  2  0
 19 20  1  0
 21 22  1  0
 21 23  1  0
 21 24  1  0
M  END
>  <EnInt_ele>  (1) 
5.608722

>  <EnInt_vdw>  (1) 
-2.43639

>  <EnInt_tot>  (1) 
3.172331

>  <Charges>  (1) 
1.09 -0.65 -0.65 0.29 0.00 0.00 0.01 0.03 0.27 -0.15 0.23 -0.57 -0.15 0.15 -0.15 0.15 -0.15 0.15 -0.15 0.15 0.10 0.00 0.00 0.00

$$$$
