
     RDKit          3D

 32 33  0  0  0  0  0  0  0  0999 V2000
  -21.7620   13.2370   26.4480 O   0  0  0  0  0  0  0  0  0  0  0  0
  -20.9040   12.7480   27.1570 C   0  0  0  0  0  0  0  0  0  0  0  0
  -21.1940   12.3440   28.4290 N   0  0  0  0  0  0  0  0  0  0  0  0
  -20.3940   11.9510   28.9340 H   0  0  0  0  0  0  0  0  0  0  0  0
  -22.4080   12.4060   29.0960 C   0  0  0  0  0  0  0  0  0  0  0  0
  -23.5790   12.8920   28.6330 C   0  0  0  0  0  0  0  0  0  0  0  0
  -23.8480   13.3140   27.7010 H   0  0  0  0  0  0  0  0  0  0  0  0
  -24.4520   12.7310   29.6570 N   0  0  0  0  0  0  0  0  0  0  0  0
  -25.8520   13.0960   29.6910 C   0  0  0  0  0  0  0  0  0  0  0  0
  -26.3660   12.5050   28.9260 H   0  0  0  0  0  0  0  0  0  0  0  0
  -26.2500   12.8010   30.6680 H   0  0  0  0  0  0  0  0  0  0  0  0
  -26.0660   14.5810   29.4610 C   0  0  0  0  0  0  0  0  0  0  0  0
  -25.6850   14.8890   28.4810 H   0  0  0  0  0  0  0  0  0  0  0  0
  -25.5480   15.1770   30.2210 H   0  0  0  0  0  0  0  0  0  0  0  0
  -27.1320   14.8230   29.5040 H   0  0  0  0  0  0  0  0  0  0  0  0
  -23.8670   12.1540   30.7480 N   0  0  0  0  0  0  0  0  0  0  0  0
  -22.6220   11.9620   30.3970 C   0  0  0  0  0  0  0  0  0  0  0  0
  -21.8960   11.5250   31.0330 H   0  0  0  0  0  0  0  0  0  0  0  0
  -19.4650   12.5710   26.6930 C   0  0  0  0  0  0  0  0  0  0  0  0
  -18.8310   12.6650   27.5830 H   0  0  0  0  0  0  0  0  0  0  0  0
  -19.2240   11.2080   26.0320 C   0  0  0  0  0  0  0  0  0  0  0  0
  -18.7410   10.5080   26.7220 H   0  0  0  0  0  0  0  0  0  0  0  0
  -20.1560   10.7380   25.7000 H   0  0  0  0  0  0  0  0  0  0  0  0
  -18.3310   11.4990   24.8340 C   0  0  0  0  0  0  0  0  0  0  0  0
  -17.2810   11.5450   25.1480 H   0  0  0  0  0  0  0  0  0  0  0  0
  -18.4210   10.7390   24.0540 H   0  0  0  0  0  0  0  0  0  0  0  0
  -18.7970   12.8660   24.3680 C   0  0  0  0  0  0  0  0  0  0  0  0
  -19.7340   12.7770   23.8060 H   0  0  0  0  0  0  0  0  0  0  0  0
  -18.0620   13.3600   23.7250 H   0  0  0  0  0  0  0  0  0  0  0  0
  -19.0280   13.6280   25.6670 C   0  0  0  0  0  0  0  0  0  0  0  0
  -19.7440   14.4450   25.5370 H   0  0  0  0  0  0  0  0  0  0  0  0
  -18.0810   14.0760   25.9950 H   0  0  0  0  0  0  0  0  0  0  0  0
  1  2  2  0
  2  3  1  0
  2 19  1  0
  3  4  1  0
  3  5  1  0
  5  6  2  0
  5 17  1  0
  6  7  1  0
  6  8  1  0
  8  9  1  0
  8 16  1  0
  9 10  1  0
  9 11  1  0
  9 12  1  0
 12 13  1  0
 12 14  1  0
 12 15  1  0
 16 17  2  0
 17 18  1  0
 19 20  1  0
 19 21  1  0
 19 30  1  0
 21 22  1  0
 21 23  1  0
 21 24  1  0
 24 25  1  0
 24 26  1  0
 24 27  1  0
 27 28  1  0
 27 29  1  0
 27 30  1  0
 30 31  1  0
 30 32  1  0
M  END
>  <EnInt_ele>  (1) 
-9.076376

>  <EnInt_vdw>  (1) 
6.633674

>  <EnInt_tot>  (1) 
-2.442702

>  <Charges>  (1) 
-0.57 0.57 -0.49 0.37 0.06 -0.30 0.15 0.31 0.26 0.00 0.00 0.00 0.00 0.00 0.00 -0.71 0.14 0.15 0.06 0.00 0.00 0.00 0.00 0.00 0.00 0.00 0.00 0.00 0.00 0.00 0.00 0.00

$$$$
