
     RDKit          3D

 19 19  0  0  0  0  0  0  0  0999 V2000
  -19.0890   10.0460   24.9600 Br  0  0  0  0  0  0  0  0  0  0  0  0
  -18.7960   11.8460   25.3750 C   0  0  0  0  0  0  0  0  0  0  0  0
  -19.0040   12.8220   24.4480 C   0  0  0  0  0  0  0  0  0  0  0  0
  -19.3340   12.5940   23.4700 H   0  0  0  0  0  0  0  0  0  0  0  0
  -18.7780   14.1950   24.7680 C   0  0  0  0  0  0  0  0  0  0  0  0
  -18.9280   15.1260   23.9670 O   0  0  0  0  0  0  0  0  0  0  0  0
  -18.3510   14.5000   26.0640 N   0  0  0  0  0  0  0  0  0  0  0  0
  -18.1130   15.8950   26.4400 C   0  0  0  0  0  0  0  0  0  0  0  0
  -18.6120   16.5550   25.7200 H   0  0  0  0  0  0  0  0  0  0  0  0
  -18.5850   16.1080   27.4090 H   0  0  0  0  0  0  0  0  0  0  0  0
  -16.6250   16.2340   26.4890 C   0  0  0  0  0  0  0  0  0  0  0  0
  -16.4570   17.3150   26.5380 H   0  0  0  0  0  0  0  0  0  0  0  0
  -16.1180   15.8610   25.5930 H   0  0  0  0  0  0  0  0  0  0  0  0
  -16.0160   15.6290   27.6230 O   0  0  0  0  0  0  0  0  0  0  0  0
  -16.4370   16.0070   28.4160 H   0  0  0  0  0  0  0  0  0  0  0  0
  -18.1340   13.5030   27.0080 C   0  0  0  0  0  0  0  0  0  0  0  0
  -17.8020   13.8300   27.9630 H   0  0  0  0  0  0  0  0  0  0  0  0
  -18.3510   12.1970   26.6800 C   0  0  0  0  0  0  0  0  0  0  0  0
  -18.1890   11.4290   27.3930 H   0  0  0  0  0  0  0  0  0  0  0  0
  1  2  1  0
  2  3  2  0
  2 18  1  0
  3  4  1  0
  3  5  1  0
  5  6  2  0
  5  7  1  0
  7  8  1  0
  7 16  1  0
  8  9  1  0
  8 10  1  0
  8 11  1  0
 11 12  1  0
 11 13  1  0
 11 14  1  0
 14 15  1  0
 16 17  1  0
 16 18  2  0
 18 19  1  0
M  END
>  <EnInt_ele>  (1) 
-2.159904

>  <EnInt_vdw>  (1) 
24.42822

>  <EnInt_tot>  (1) 
22.26832

>  <Charges>  (1) 
-0.11 0.11 -0.14 0.15 0.62 -0.57 -0.47 0.30 0.00 0.00 0.28 0.00 0.00 -0.68 0.40 -0.04 0.15 -0.15 0.15

$$$$
