
     RDKit          3D

 23 23  0  0  0  0  0  0  0  0999 V2000
  -24.2620   12.4540   30.0160 Cl  0  0  0  0  0  0  0  0  0  0  0  0
  -22.9440   12.5600   28.9120 C   0  0  0  0  0  0  0  0  0  0  0  0
  -23.0640   13.0640   27.6070 C   0  0  0  0  0  0  0  0  0  0  0  0
  -24.3080   13.5710   26.9920 C   0  0  0  0  0  0  0  0  0  0  0  0
  -24.7800   14.6980   27.0340 O   0  0  0  0  0  0  0  0  0  0  0  0
  -25.0610   12.7000   26.2740 N   0  0  0  0  0  0  0  0  0  0  0  0
  -25.9310   13.0420   25.8480 H   0  0  0  0  0  0  0  0  0  0  0  0
  -24.7580   11.7220   26.1800 H   0  0  0  0  0  0  0  0  0  0  0  0
  -21.9540   13.0990   26.8270 N   0  0  0  0  0  0  0  0  0  0  0  0
  -20.7900   12.6680   27.2860 C   0  0  0  0  0  0  0  0  0  0  0  0
  -19.5880   12.7290   26.3780 C   0  0  0  0  0  0  0  0  0  0  0  0
  -19.9410   12.8710   25.3490 H   0  0  0  0  0  0  0  0  0  0  0  0
  -18.6950   13.9160   26.7340 C   0  0  0  0  0  0  0  0  0  0  0  0
  -18.2840   13.8260   27.7470 H   0  0  0  0  0  0  0  0  0  0  0  0
  -19.2560   14.8570   26.6870 H   0  0  0  0  0  0  0  0  0  0  0  0
  -17.8540   13.9910   26.0370 H   0  0  0  0  0  0  0  0  0  0  0  0
  -18.8040   11.4180   26.4240 C   0  0  0  0  0  0  0  0  0  0  0  0
  -18.3970   11.2230   27.4230 H   0  0  0  0  0  0  0  0  0  0  0  0
  -17.9650   11.4440   25.7200 H   0  0  0  0  0  0  0  0  0  0  0  0
  -19.4420   10.5700   26.1550 H   0  0  0  0  0  0  0  0  0  0  0  0
  -20.6540   12.1830   28.5240 N   0  0  0  0  0  0  0  0  0  0  0  0
  -21.6940   12.1220   29.3340 C   0  0  0  0  0  0  0  0  0  0  0  0
  -21.5650   11.7340   30.3130 H   0  0  0  0  0  0  0  0  0  0  0  0
  1  2  1  0
  2  3  2  0
  2 22  1  0
  3  4  1  0
  3  9  1  0
  4  5  2  0
  4  6  1  0
  6  7  1  0
  6  8  1  0
  9 10  2  0
 10 11  1  0
 10 21  1  0
 11 12  1  0
 11 13  1  0
 11 17  1  0
 13 14  1  0
 13 15  1  0
 13 16  1  0
 17 18  1  0
 17 19  1  0
 17 20  1  0
 21 22  2  0
 22 23  1  0
M  END
>  <EnInt_ele>  (1) 
0.4015538

>  <EnInt_vdw>  (1) 
-0.5148123

>  <EnInt_tot>  (1) 
-0.1132586

>  <Charges>  (1) 
-0.18 0.18 0.40 0.54 -0.57 -0.80 0.37 0.37 -0.62 0.48 0.14 0.00 0.00 0.00 0.00 0.00 0.00 0.00 0.00 0.00 -0.62 0.16 0.15

$$$$
