
     RDKit          3D

 27 28  0  0  0  0  0  0  0  0999 V2000
  -18.7990   14.8330   26.0360 O   0  0  0  0  0  0  0  0  0  0  0  0
  -17.5150   15.1890   26.5320 C   0  0  0  0  0  0  0  0  0  0  0  0
  -17.5050   16.2730   26.6820 H   0  0  0  0  0  0  0  0  0  0  0  0
  -16.7310   14.9470   25.8070 H   0  0  0  0  0  0  0  0  0  0  0  0
  -17.3210   14.7180   27.5010 H   0  0  0  0  0  0  0  0  0  0  0  0
  -19.0480   13.5070   25.7490 C   0  0  0  0  0  0  0  0  0  0  0  0
  -20.0980   12.9130   26.4620 C   0  0  0  0  0  0  0  0  0  0  0  0
  -20.3670   11.5570   26.2200 C   0  0  0  0  0  0  0  0  0  0  0  0
  -21.3440   10.7560   26.8580 N   0  0  0  0  0  0  0  0  0  0  0  0
  -21.4590    9.8120   26.4710 H   0  0  0  0  0  0  0  0  0  0  0  0
  -22.1840   10.9510   27.9090 C   0  0  0  0  0  0  0  0  0  0  0  0
  -22.8550    9.9770   28.1640 O   0  0  0  0  0  0  0  0  0  0  0  0
  -22.2090   12.2010   28.7170 C   0  0  0  0  0  0  0  0  0  0  0  0
  -23.1190   12.1730   29.3290 H   0  0  0  0  0  0  0  0  0  0  0  0
  -21.3530   12.2070   29.4000 H   0  0  0  0  0  0  0  0  0  0  0  0
  -22.2560   13.4160   27.8270 C   0  0  0  0  0  0  0  0  0  0  0  0
  -22.8960   13.2540   26.9500 H   0  0  0  0  0  0  0  0  0  0  0  0
  -22.6940   14.2460   28.3940 H   0  0  0  0  0  0  0  0  0  0  0  0
  -20.8570   13.8220   27.4060 C   0  0  0  0  0  0  0  0  0  0  0  0
  -20.2350   13.9840   28.2960 H   0  0  0  0  0  0  0  0  0  0  0  0
  -20.9830   14.8000   26.9240 H   0  0  0  0  0  0  0  0  0  0  0  0
  -19.6120   10.8270   25.2990 C   0  0  0  0  0  0  0  0  0  0  0  0
  -19.8280    9.8040   25.1280 H   0  0  0  0  0  0  0  0  0  0  0  0
  -18.5790   11.4380   24.6010 C   0  0  0  0  0  0  0  0  0  0  0  0
  -18.0100   10.8830   23.9010 H   0  0  0  0  0  0  0  0  0  0  0  0
  -18.2940   12.7810   24.8220 C   0  0  0  0  0  0  0  0  0  0  0  0
  -17.5060   13.2400   24.2860 H   0  0  0  0  0  0  0  0  0  0  0  0
  1  2  1  0
  1  6  1  0
  2  3  1  0
  2  4  1  0
  2  5  1  0
  6  7  2  0
  6 26  1  0
  7  8  1  0
  7 19  1  0
  8  9  1  0
  8 22  2  0
  9 10  1  0
  9 11  1  0
 11 12  2  0
 11 13  1  0
 13 14  1  0
 13 15  1  0
 13 16  1  0
 16 17  1  0
 16 18  1  0
 16 19  1  0
 19 20  1  0
 19 21  1  0
 22 23  1  0
 22 24  1  0
 24 25  1  0
 24 26  2  0
 26 27  1  0
M  END
>  <EnInt_ele>  (1) 
1.879837

>  <EnInt_vdw>  (1) 
2.064546

>  <EnInt_tot>  (1) 
3.944382

>  <Charges>  (1) 
-0.36 0.28 0.00 0.00 0.00 0.08 -0.14 0.12 -0.55 0.37 0.57 -0.57 0.06 0.00 0.00 0.00 0.00 0.00 0.14 0.00 0.00 -0.15 0.15 -0.15 0.15 -0.15 0.15

$$$$
