
     RDKit          3D

 29 30  0  0  0  0  0  0  0  0999 V2000
  -16.7080   11.5460   23.9270 O   0  0  0  0  0  0  0  0  0  0  0  0
  -17.4480   12.5080   24.0550 C   0  0  0  0  0  0  0  0  0  0  0  0
  -17.0280   13.7180   23.6800 N   0  0  0  0  0  0  0  0  0  0  0  0
  -16.0900   13.7320   23.2630 H   0  0  0  0  0  0  0  0  0  0  0  0
  -17.7400   14.3500   23.3070 H   0  0  0  0  0  0  0  0  0  0  0  0
  -18.7210   12.4320   24.5570 N   0  0  0  0  0  0  0  0  0  0  0  0
  -19.3240   11.1120   24.7660 C   0  0  0  0  0  0  0  0  0  0  0  0
  -18.6270   10.3070   24.5120 H   0  0  0  0  0  0  0  0  0  0  0  0
  -20.1760   11.0390   24.0780 H   0  0  0  0  0  0  0  0  0  0  0  0
  -19.8000   10.9500   26.2090 C   0  0  0  0  0  0  0  0  0  0  0  0
  -18.9420   10.9800   26.8910 H   0  0  0  0  0  0  0  0  0  0  0  0
  -20.2790    9.9750   26.3350 H   0  0  0  0  0  0  0  0  0  0  0  0
  -20.6890   12.0520   26.6100 N   0  0  0  0  0  0  0  0  0  0  0  0
  -21.9320   11.7800   27.1710 C   0  0  0  0  0  0  0  0  0  0  0  0
  -22.3560   10.6320   27.0340 O   0  0  0  0  0  0  0  0  0  0  0  0
  -22.6850   12.7990   27.8690 C   0  0  0  0  0  0  0  0  0  0  0  0
  -22.0990   13.5540   28.8470 O   0  0  0  0  0  0  0  0  0  0  0  0
  -23.0400   14.3760   29.3610 C   0  0  0  0  0  0  0  0  0  0  0  0
  -22.7900   15.0600   30.1320 H   0  0  0  0  0  0  0  0  0  0  0  0
  -24.2240   14.1520   28.7460 C   0  0  0  0  0  0  0  0  0  0  0  0
  -25.1370   14.6500   28.9490 H   0  0  0  0  0  0  0  0  0  0  0  0
  -24.0060   13.1270   27.7960 C   0  0  0  0  0  0  0  0  0  0  0  0
  -24.7150   12.6840   27.1420 H   0  0  0  0  0  0  0  0  0  0  0  0
  -20.1380   13.3940   26.3720 C   0  0  0  0  0  0  0  0  0  0  0  0
  -20.8900   14.1700   26.5200 H   0  0  0  0  0  0  0  0  0  0  0  0
  -19.3350   13.5410   27.1030 H   0  0  0  0  0  0  0  0  0  0  0  0
  -19.5880   13.5540   24.9420 C   0  0  0  0  0  0  0  0  0  0  0  0
  -19.0690   14.5130   24.8790 H   0  0  0  0  0  0  0  0  0  0  0  0
  -20.4170   13.5700   24.2230 H   0  0  0  0  0  0  0  0  0  0  0  0
  1  2  2  0
  2  3  1  0
  2  6  1  0
  3  4  1  0
  3  5  1  0
  6  7  1  0
  6 27  1  0
  7  8  1  0
  7  9  1  0
  7 10  1  0
 10 11  1  0
 10 12  1  0
 10 13  1  0
 13 14  1  0
 13 24  1  0
 14 15  2  0
 14 16  1  0
 16 17  1  0
 16 22  2  0
 17 18  1  0
 18 19  1  0
 18 20  2  0
 20 21  1  0
 20 22  1  0
 22 23  1  0
 24 25  1  0
 24 26  1  0
 24 27  1  0
 27 28  1  0
 27 29  1  0
M  END
>  <EnInt_ele>  (1) 
-30.9775

>  <EnInt_vdw>  (1) 
3.908125

>  <EnInt_tot>  (1) 
-27.06937

>  <Charges>  (1) 
-0.57 0.69 -0.80 0.37 0.37 -0.66 0.30 0.00 0.00 0.30 0.00 0.00 -0.66 0.71 -0.57 0.06 -0.28 -0.01 0.15 -0.15 0.15 -0.15 0.15 0.30 0.00 0.00 0.30 0.00 0.00

$$$$
