
     RDKit          3D

 32 33  0  0  0  0  0  0  0  0999 V2000
  -19.8640   19.2040   28.3710 O   0  0  0  0  0  0  0  0  0  0  0  0
  -18.6740   19.4810   28.3990 C   0  0  0  0  0  0  0  0  0  0  0  0
  -18.1200   20.5050   29.1010 O   0  0  0  0  0  0  0  0  0  0  0  0
  -19.0400   21.2160   29.9330 C   0  0  0  0  0  0  0  0  0  0  0  0
  -19.4860   20.5430   30.6720 H   0  0  0  0  0  0  0  0  0  0  0  0
  -19.8160   21.6910   29.3240 H   0  0  0  0  0  0  0  0  0  0  0  0
  -18.4860   21.9960   30.4610 H   0  0  0  0  0  0  0  0  0  0  0  0
  -17.6970   18.8320   27.7090 N   0  0  0  0  0  0  0  0  0  0  0  0
  -16.7720   19.2610   27.8080 H   0  0  0  0  0  0  0  0  0  0  0  0
  -17.7900   17.6860   26.8900 C   0  0  0  0  0  0  0  0  0  0  0  0
  -18.9920   17.2360   26.3380 C   0  0  0  0  0  0  0  0  0  0  0  0
  -19.8980   17.7470   26.5280 H   0  0  0  0  0  0  0  0  0  0  0  0
  -18.9940   16.0970   25.5410 C   0  0  0  0  0  0  0  0  0  0  0  0
  -19.9070   15.7550   25.1240 H   0  0  0  0  0  0  0  0  0  0  0  0
  -17.8090   15.4010   25.2900 C   0  0  0  0  0  0  0  0  0  0  0  0
  -17.8220   14.1510   24.4390 C   0  0  0  0  0  0  0  0  0  0  0  0
  -16.8330   14.0110   23.9840 H   0  0  0  0  0  0  0  0  0  0  0  0
  -18.5010   14.2870   23.5870 H   0  0  0  0  0  0  0  0  0  0  0  0
  -18.2160   12.9110   25.2020 C   0  0  0  0  0  0  0  0  0  0  0  0
  -18.6920   11.7810   24.5480 C   0  0  0  0  0  0  0  0  0  0  0  0
  -18.7720   11.7620   23.4930 H   0  0  0  0  0  0  0  0  0  0  0  0
  -19.0680   10.6620   25.2840 C   0  0  0  0  0  0  0  0  0  0  0  0
  -19.4340    9.7960   24.7930 H   0  0  0  0  0  0  0  0  0  0  0  0
  -18.9870   10.6360   26.6130 N   0  0  0  0  0  0  0  0  0  0  0  0
  -18.5360   11.7080   27.2620 C   0  0  0  0  0  0  0  0  0  0  0  0
  -18.4840   11.6630   28.3210 H   0  0  0  0  0  0  0  0  0  0  0  0
  -18.1430   12.8600   26.5890 C   0  0  0  0  0  0  0  0  0  0  0  0
  -17.7950   13.6970   27.1380 H   0  0  0  0  0  0  0  0  0  0  0  0
  -16.6160   15.8540   25.8580 C   0  0  0  0  0  0  0  0  0  0  0  0
  -15.7100   15.3330   25.6800 H   0  0  0  0  0  0  0  0  0  0  0  0
  -16.6030   16.9920   26.6570 C   0  0  0  0  0  0  0  0  0  0  0  0
  -15.6940   17.3340   27.0810 H   0  0  0  0  0  0  0  0  0  0  0  0
  1  2  2  0
  2  3  1  0
  2  8  1  0
  3  4  1  0
  4  5  1  0
  4  6  1  0
  4  7  1  0
  8  9  1  0
  8 10  1  0
 10 11  2  0
 10 31  1  0
 11 12  1  0
 11 13  1  0
 13 14  1  0
 13 15  2  0
 15 16  1  0
 15 29  1  0
 16 17  1  0
 16 18  1  0
 16 19  1  0
 19 20  2  0
 19 27  1  0
 20 21  1  0
 20 22  1  0
 22 23  1  0
 22 24  2  0
 24 25  1  0
 25 26  1  0
 25 27  2  0
 27 28  1  0
 29 30  1  0
 29 31  2  0
 31 32  1  0
M  END
>  <EnInt_ele>  (1) 
1.775556

>  <EnInt_vdw>  (1) 
4.043566

>  <EnInt_tot>  (1) 
5.819122

>  <Charges>  (1) 
-0.57 0.78 -0.43 0.28 0.00 0.00 0.00 -0.55 0.37 0.12 -0.15 0.15 -0.15 0.15 -0.14 0.29 0.00 0.00 -0.14 -0.15 0.15 0.16 0.15 -0.62 0.16 0.15 -0.15 0.15 -0.15 0.15 -0.15 0.15

$$$$
