
     RDKit          3D

 23 24  0  0  0  0  0  0  0  0999 V2000
  -21.2660   11.8100   27.0236 N   0  0  0  0  0  0  0  0  0  0  0  0
  -20.5984   11.0237   27.0191 H   0  0  0  0  0  0  0  0  0  0  0  0
  -21.3931   12.0364   26.0270 H   0  0  0  0  0  0  0  0  0  0  0  0
  -22.5734   11.3025   27.5538 C   0  0  0  0  0  0  0  0  0  0  0  0
  -22.7260   10.3092   27.1216 H   0  0  0  0  0  0  0  0  0  0  0  0
  -22.4646   11.2243   28.6409 H   0  0  0  0  0  0  0  0  0  0  0  0
  -23.6817   12.2167   27.1962 C   0  0  0  0  0  0  0  0  0  0  0  0
  -24.1812   13.1806   27.9810 N   0  0  0  0  0  0  0  0  0  0  0  0
  -25.1755   13.7717   27.2795 C   0  0  0  0  0  0  0  0  0  0  0  0
  -25.2690   13.1868   26.1073 N   0  0  0  0  0  0  0  0  0  0  0  0
  -24.3239   12.2136   26.0633 N   0  0  0  0  0  0  0  0  0  0  0  0
  -25.8972   14.8460   27.8808 C   0  0  0  0  0  0  0  0  0  0  0  0
  -26.6776   15.3086   27.3331 H   0  0  0  0  0  0  0  0  0  0  0  0
  -25.5758   15.2583   29.1421 C   0  0  0  0  0  0  0  0  0  0  0  0
  -26.1035   16.0552   29.6029 H   0  0  0  0  0  0  0  0  0  0  0  0
  -24.5161   14.6111   29.8519 C   0  0  0  0  0  0  0  0  0  0  0  0
  -24.2781   14.9459   30.8313 H   0  0  0  0  0  0  0  0  0  0  0  0
  -23.8226   13.5806   29.2803 C   0  0  0  0  0  0  0  0  0  0  0  0
  -23.0273   13.0491   29.7334 H   0  0  0  0  0  0  0  0  0  0  0  0
  -20.6931   12.9679   27.7489 C   0  0  0  0  0  0  0  0  0  0  0  0
  -20.5207   12.6735   28.7862 H   0  0  0  0  0  0  0  0  0  0  0  0
  -21.4001   13.7981   27.6834 H   0  0  0  0  0  0  0  0  0  0  0  0
  -19.7507   13.2278   27.2612 H   0  0  0  0  0  0  0  0  0  0  0  0
  1  2  1  0
  1  3  1  0
  1  4  1  0
  1 20  1  0
  4  5  1  0
  4  6  1  0
  4  7  1  0
  7  8  1  0
  7 11  2  0
  8  9  1  0
  8 18  1  0
  9 10  2  0
  9 12  1  0
 10 11  1  0
 12 13  1  0
 12 14  2  0
 14 15  1  0
 14 16  1  0
 16 17  1  0
 16 18  2  0
 18 19  1  0
 20 21  1  0
 20 22  1  0
 20 23  1  0
M  END
$$$$
