
     RDKit          3D

 24 25  0  0  0  0  0  0  0  0999 V2000
  -17.6140   13.6730   23.4370 F   0  0  0  0  0  0  0  0  0  0  0  0
  -18.2220   13.3460   24.5860 C   0  0  0  0  0  0  0  0  0  0  0  0
  -18.5000   14.3110   25.5730 C   0  0  0  0  0  0  0  0  0  0  0  0
  -18.1450   15.6510   25.4900 N   0  0  0  0  0  0  0  0  0  0  0  0
  -17.8700   16.0010   24.5790 H   0  0  0  0  0  0  0  0  0  0  0  0
  -18.1110   16.6350   26.5550 C   0  0  0  0  0  0  0  0  0  0  0  0
  -19.0940   16.8960   26.9490 H   0  0  0  0  0  0  0  0  0  0  0  0
  -17.5550   16.2000   27.3940 H   0  0  0  0  0  0  0  0  0  0  0  0
  -17.4490   17.8960   26.1310 C   0  0  0  0  0  0  0  0  0  0  0  0
  -16.1470   17.9240   25.7640 N   0  0  0  0  0  0  0  0  0  0  0  0
  -15.5170   17.0970   25.7690 H   0  0  0  0  0  0  0  0  0  0  0  0
  -15.7400   19.1690   25.4040 N   0  0  0  0  0  0  0  0  0  0  0  0
  -16.7980   19.9190   25.5490 C   0  0  0  0  0  0  0  0  0  0  0  0
  -16.8060   20.9600   25.3450 H   0  0  0  0  0  0  0  0  0  0  0  0
  -17.8800   19.1710   25.9980 C   0  0  0  0  0  0  0  0  0  0  0  0
  -18.8560   19.5340   26.1970 H   0  0  0  0  0  0  0  0  0  0  0  0
  -19.1700   13.9100   26.7300 C   0  0  0  0  0  0  0  0  0  0  0  0
  -19.4070   14.6230   27.4770 H   0  0  0  0  0  0  0  0  0  0  0  0
  -19.5210   12.5720   26.9030 C   0  0  0  0  0  0  0  0  0  0  0  0
  -20.0260   12.2720   27.7870 H   0  0  0  0  0  0  0  0  0  0  0  0
  -19.2200   11.6240   25.9240 C   0  0  0  0  0  0  0  0  0  0  0  0
  -19.4940   10.6090   26.0670 H   0  0  0  0  0  0  0  0  0  0  0  0
  -18.5700   12.0140   24.7550 C   0  0  0  0  0  0  0  0  0  0  0  0
  -18.3470   11.3060   23.9980 H   0  0  0  0  0  0  0  0  0  0  0  0
  1  2  1  0
  2  3  2  0
  2 23  1  0
  3  4  1  0
  3 17  1  0
  4  5  1  0
  4  6  1  0
  6  7  1  0
  6  8  1  0
  6  9  1  0
  9 10  1  0
  9 15  2  0
 10 11  1  0
 10 12  1  0
 12 13  2  0
 13 14  1  0
 13 15  1  0
 15 16  1  0
 17 18  1  0
 17 19  2  0
 19 20  1  0
 19 21  1  0
 21 22  1  0
 21 23  2  0
 23 24  1  0
M  END
>  <EnInt_ele>  (1) 
0.5161904

>  <EnInt_vdw>  (1) 
-0.0389187

>  <EnInt_tot>  (1) 
0.4772717

>  <Charges>  (1) 
-0.19 0.19 0.10 -0.87 0.40 0.55 0.00 0.00 -0.33 0.30 0.27 -0.71 0.14 0.15 -0.15 0.15 -0.15 0.15 -0.15 0.15 -0.15 0.15 -0.15 0.15

$$$$
