
     RDKit          3D

 29 30  0  0  0  0  0  0  0  0999 V2000
  -26.3510   12.4950   30.8150 O   0  0  0  0  0  0  0  0  0  0  0  0
  -26.0480   12.9600   29.7290 C   0  0  0  0  0  0  0  0  0  0  0  0
  -27.0070   13.3600   28.8920 N   0  0  0  0  0  0  0  0  0  0  0  0
  -27.9580   13.2790   29.2660 H   0  0  0  0  0  0  0  0  0  0  0  0
  -26.7810   14.1580   28.2930 H   0  0  0  0  0  0  0  0  0  0  0  0
  -24.7560   13.1180   29.2990 N   0  0  0  0  0  0  0  0  0  0  0  0
  -23.6610   12.9200   30.2520 C   0  0  0  0  0  0  0  0  0  0  0  0
  -24.0350   12.6190   31.2360 H   0  0  0  0  0  0  0  0  0  0  0  0
  -23.1640   13.8900   30.3730 H   0  0  0  0  0  0  0  0  0  0  0  0
  -22.6660   11.8820   29.7350 C   0  0  0  0  0  0  0  0  0  0  0  0
  -23.1540   10.9030   29.6570 H   0  0  0  0  0  0  0  0  0  0  0  0
  -21.8390   11.7750   30.4420 H   0  0  0  0  0  0  0  0  0  0  0  0
  -22.1900   12.2180   28.3850 N   0  0  0  0  0  0  0  0  0  0  0  0
  -20.8260   12.2680   28.1140 C   0  0  0  0  0  0  0  0  0  0  0  0
  -20.0760   12.3170   29.0900 O   0  0  0  0  0  0  0  0  0  0  0  0
  -20.3250   12.2670   26.7580 C   0  0  0  0  0  0  0  0  0  0  0  0
  -20.0500   11.0930   26.1140 O   0  0  0  0  0  0  0  0  0  0  0  0
  -19.5470   11.3910   24.8960 C   0  0  0  0  0  0  0  0  0  0  0  0
  -19.2760   10.6160   24.2250 H   0  0  0  0  0  0  0  0  0  0  0  0
  -19.4750   12.7340   24.7500 C   0  0  0  0  0  0  0  0  0  0  0  0
  -19.1180   13.2510   23.8980 H   0  0  0  0  0  0  0  0  0  0  0  0
  -19.9600   13.3040   25.9510 C   0  0  0  0  0  0  0  0  0  0  0  0
  -20.0340   14.3330   26.1990 H   0  0  0  0  0  0  0  0  0  0  0  0
  -23.2600   12.4720   27.4100 C   0  0  0  0  0  0  0  0  0  0  0  0
  -22.8670   12.8820   26.4780 H   0  0  0  0  0  0  0  0  0  0  0  0
  -23.7280   11.5050   27.1940 H   0  0  0  0  0  0  0  0  0  0  0  0
  -24.3120   13.4630   27.9410 C   0  0  0  0  0  0  0  0  0  0  0  0
  -25.1430   13.4940   27.2340 H   0  0  0  0  0  0  0  0  0  0  0  0
  -23.8800   14.4700   27.9990 H   0  0  0  0  0  0  0  0  0  0  0  0
  1  2  2  0
  2  3  1  0
  2  6  1  0
  3  4  1  0
  3  5  1  0
  6  7  1  0
  6 27  1  0
  7  8  1  0
  7  9  1  0
  7 10  1  0
 10 11  1  0
 10 12  1  0
 10 13  1  0
 13 14  1  0
 13 24  1  0
 14 15  2  0
 14 16  1  0
 16 17  1  0
 16 22  2  0
 17 18  1  0
 18 19  1  0
 18 20  2  0
 20 21  1  0
 20 22  1  0
 22 23  1  0
 24 25  1  0
 24 26  1  0
 24 27  1  0
 27 28  1  0
 27 29  1  0
M  END
>  <EnInt_ele>  (1) 
-30.70228

>  <EnInt_vdw>  (1) 
2.877696

>  <EnInt_tot>  (1) 
-27.82458

>  <Charges>  (1) 
-0.57 0.69 -0.80 0.37 0.37 -0.66 0.30 0.00 0.00 0.30 0.00 0.00 -0.66 0.71 -0.57 0.06 -0.28 -0.01 0.15 -0.15 0.15 -0.15 0.15 0.30 0.00 0.00 0.30 0.00 0.00

$$$$
