
     RDKit          3D

 30 31  0  0  0  0  0  0  0  0999 V2000
  -23.7420   13.1180   28.5600 N   0  0  0  0  0  0  0  0  0  0  0  0
  -22.6160   12.5240   27.8130 C   0  0  0  0  0  0  0  0  0  0  0  0
  -22.5070   12.9720   26.8220 H   0  0  0  0  0  0  0  0  0  0  0  0
  -21.6710   12.7590   28.3180 H   0  0  0  0  0  0  0  0  0  0  0  0
  -22.7520   11.0100   27.7380 C   0  0  0  0  0  0  0  0  0  0  0  0
  -23.6960   10.7020   27.2800 H   0  0  0  0  0  0  0  0  0  0  0  0
  -22.7150   10.5640   28.7380 H   0  0  0  0  0  0  0  0  0  0  0  0
  -21.9320   10.5850   27.1500 H   0  0  0  0  0  0  0  0  0  0  0  0
  -25.0010   13.1450   27.7880 C   0  0  0  0  0  0  0  0  0  0  0  0
  -24.8140   12.9690   26.7230 H   0  0  0  0  0  0  0  0  0  0  0  0
  -25.6570   12.3240   28.1020 H   0  0  0  0  0  0  0  0  0  0  0  0
  -25.7330   14.4640   27.9920 C   0  0  0  0  0  0  0  0  0  0  0  0
  -25.1330   15.3150   27.6550 H   0  0  0  0  0  0  0  0  0  0  0  0
  -25.9700   14.6240   29.0490 H   0  0  0  0  0  0  0  0  0  0  0  0
  -26.6720   14.4660   27.4290 H   0  0  0  0  0  0  0  0  0  0  0  0
  -23.6410   13.6250   29.9040 C   0  0  0  0  0  0  0  0  0  0  0  0
  -23.7160   12.7600   31.0560 N   0  0  0  0  0  0  0  0  0  0  0  0
  -23.8750   11.4200   31.1270 N   0  0  0  0  0  0  0  0  0  0  0  0
  -23.8660   11.2050   32.4060 C   0  0  0  0  0  0  0  0  0  0  0  0
  -23.9730   10.2300   32.8140 H   0  0  0  0  0  0  0  0  0  0  0  0
  -23.7140   12.2850   33.1810 N   0  0  0  0  0  0  0  0  0  0  0  0
  -23.6180   13.2640   32.3290 C   0  0  0  0  0  0  0  0  0  0  0  0
  -23.4480   14.6130   32.5940 N   0  0  0  0  0  0  0  0  0  0  0  0
  -23.3750   15.4270   31.5920 C   0  0  0  0  0  0  0  0  0  0  0  0
  -23.1900   16.8970   31.8540 C   0  0  0  0  0  0  0  0  0  0  0  0
  -23.1530   17.4680   30.9230 H   0  0  0  0  0  0  0  0  0  0  0  0
  -22.2550   17.0500   32.4010 H   0  0  0  0  0  0  0  0  0  0  0  0
  -24.0220   17.2630   32.4620 H   0  0  0  0  0  0  0  0  0  0  0  0
  -23.4680   14.9690   30.1810 C   0  0  0  0  0  0  0  0  0  0  0  0
  -23.4130   15.6740   29.4000 H   0  0  0  0  0  0  0  0  0  0  0  0
  1  2  1  0
  1  9  1  0
  1 16  1  0
  2  3  1  0
  2  4  1  0
  2  5  1  0
  5  6  1  0
  5  7  1  0
  5  8  1  0
  9 10  1  0
  9 11  1  0
  9 12  1  0
 12 13  1  0
 12 14  1  0
 12 15  1  0
 16 17  1  0
 16 29  2  0
 17 18  1  0
 17 22  1  0
 18 19  2  0
 19 20  1  0
 19 21  1  0
 21 22  2  0
 22 23  1  0
 23 24  2  0
 24 25  1  0
 24 29  1  0
 25 26  1  0
 25 27  1  0
 25 28  1  0
 29 30  1  0
M  END
>  <EnInt_ele>  (1) 
-0.9405877

>  <EnInt_vdw>  (1) 
0.8070535

>  <EnInt_tot>  (1) 
-0.1335342

>  <Charges>  (1) 
-0.84 0.37 0.00 0.00 0.00 0.00 0.00 0.00 0.37 0.00 0.00 0.00 0.00 0.00 0.00 0.07 0.60 -0.71 0.37 0.15 -0.57 0.31 -0.58 0.38 0.06 0.00 0.00 0.00 -0.14 0.15

$$$$
