
     RDKit          3D

 29 30  0  0  1  0  0  0  0  0999 V2000
  -18.6000   11.7420   25.1070 C   0  0  0  0  0  0  0  0  0  0  0  0
  -19.4090   11.0910   24.7600 H   0  0  0  0  0  0  0  0  0  0  0  0
  -18.0000   11.1860   25.8380 H   0  0  0  0  0  0  0  0  0  0  0  0
  -17.9390   11.9590   24.2600 H   0  0  0  0  0  0  0  0  0  0  0  0
  -19.1410   13.0340   25.7100 C   0  0  0  0  0  0  0  0  0  0  0  0
  -18.0400   13.8460   26.1200 O   0  0  0  0  0  0  0  0  0  0  0  0
  -17.5140   14.0430   25.3280 H   0  0  0  0  0  0  0  0  0  0  0  0
  -20.0710   12.7690   26.8510 C   0  0  0  0  0  0  0  0  0  0  0  0
  -19.7080   12.4900   28.1640 C   0  0  0  0  0  0  0  0  0  0  0  0
  -18.7170   12.4230   28.5310 H   0  0  0  0  0  0  0  0  0  0  0  0
  -20.7570   12.3140   28.9200 N   0  0  0  0  0  0  0  0  0  0  0  0
  -21.8240   12.4820   28.0860 N   0  0  0  0  0  0  0  0  0  0  0  0
  -23.1780   12.3590   28.5720 C   0  0  0  0  0  0  0  0  0  0  0  0
  -23.3840   11.2880   28.6960 H   0  0  0  0  0  0  0  0  0  0  0  0
  -23.4410   13.0720   29.8970 C   0  0  0  0  0  0  0  0  0  0  0  0
  -23.0120   12.5380   30.7500 H   0  0  0  0  0  0  0  0  0  0  0  0
  -23.0210   14.0860   29.8990 H   0  0  0  0  0  0  0  0  0  0  0  0
  -24.9630   13.1520   29.9760 C   0  0  0  0  0  0  0  0  0  0  0  0
  -25.3580   12.3040   30.5470 H   0  0  0  0  0  0  0  0  0  0  0  0
  -25.2870   14.0660   30.4830 H   0  0  0  0  0  0  0  0  0  0  0  0
  -25.4710   13.0880   28.5360 C   0  0  0  0  0  0  0  0  0  0  0  0
  -26.0620   13.9710   28.2730 H   0  0  0  0  0  0  0  0  0  0  0  0
  -26.1190   12.2120   28.4100 H   0  0  0  0  0  0  0  0  0  0  0  0
  -24.2350   12.9650   27.6500 C   0  0  0  0  0  0  0  0  0  0  0  0
  -23.9370   13.9590   27.2950 H   0  0  0  0  0  0  0  0  0  0  0  0
  -24.4210   12.3440   26.7670 H   0  0  0  0  0  0  0  0  0  0  0  0
  -21.4240   12.7610   26.8280 C   0  0  0  0  0  0  0  0  0  0  0  0
  -22.1050   12.9240   26.0320 H   0  0  0  0  0  0  0  0  0  0  0  0
  -19.6770   13.5950   24.9350 H   0  0  0  0  0  0  0  0  0  0  0  0
  1  2  1  0
  1  3  1  0
  1  4  1  0
  1  5  1  0
  5  6  1  0
  5  8  1  0
  5 29  1  0
  6  7  1  0
  8  9  1  0
  8 27  2  0
  9 10  1  0
  9 11  2  0
 11 12  1  0
 12 13  1  0
 12 27  1  0
 13 14  1  0
 13 15  1  0
 13 24  1  0
 15 16  1  0
 15 17  1  0
 15 18  1  0
 18 19  1  0
 18 20  1  0
 18 21  1  0
 21 22  1  0
 21 23  1  0
 21 24  1  0
 24 25  1  0
 24 26  1  0
 27 28  1  0
M  END
>  <EnInt_ele>  (1) 
-4.547474e-013

>  <EnInt_vdw>  (1) 
-0.9406483

>  <EnInt_tot>  (1) 
-0.9406483

>  <Charges>  (1) 
0.00 0.00 0.00 0.00 0.46 -0.68 0.40 -0.18 0.14 0.15 -0.71 0.31 0.26 0.00 0.00 0.00 0.00 0.00 0.00 0.00 0.00 0.00 0.00 0.00 0.00 0.00 -0.30 0.15 0.00

$$$$
