
     RDKit          3D

 25 27  0  0  0  0  0  0  0  0999 V2000
  -22.5860   12.9290   26.4530 O   0  0  0  0  0  0  0  0  0  0  0  0
  -22.3380   12.5660   27.6010 C   0  0  0  0  0  0  0  0  0  0  0  0
  -21.0540   12.2360   27.9170 N   0  0  0  0  0  0  0  0  0  0  0  0
  -20.8980   11.9520   28.8980 H   0  0  0  0  0  0  0  0  0  0  0  0
  -19.9580   12.2690   27.0070 C   0  0  0  0  0  0  0  0  0  0  0  0
  -20.1400   11.6900   26.1040 H   0  0  0  0  0  0  0  0  0  0  0  0
  -18.5410   12.2930   27.5120 C   0  0  0  0  0  0  0  0  0  0  0  0
  -18.3680   12.3280   28.5800 H   0  0  0  0  0  0  0  0  0  0  0  0
  -17.8000   11.7280   26.9590 H   0  0  0  0  0  0  0  0  0  0  0  0
  -19.1240   13.5110   26.8580 C   0  0  0  0  0  0  0  0  0  0  0  0
  -18.7840   13.7710   25.8630 H   0  0  0  0  0  0  0  0  0  0  0  0
  -19.3570   14.3630   27.4870 H   0  0  0  0  0  0  0  0  0  0  0  0
  -23.3200   12.4700   28.6560 C   0  0  0  0  0  0  0  0  0  0  0  0
  -24.5250   13.1240   28.7030 C   0  0  0  0  0  0  0  0  0  0  0  0
  -25.0930   12.7140   29.8860 N   0  0  0  0  0  0  0  0  0  0  0  0
  -24.3110   11.8400   30.5740 N   0  0  0  0  0  0  0  0  0  0  0  0
  -23.2480   11.7060   29.8200 C   0  0  0  0  0  0  0  0  0  0  0  0
  -22.4300   11.0800   30.0780 H   0  0  0  0  0  0  0  0  0  0  0  0
  -26.3510   13.1770   30.2900 C   0  0  0  0  0  0  0  0  0  0  0  0
  -26.7050   12.8050   31.2160 H   0  0  0  0  0  0  0  0  0  0  0  0
  -26.9720   14.0540   29.4430 C   0  0  0  0  0  0  0  0  0  0  0  0
  -27.9250   14.4510   29.6790 H   0  0  0  0  0  0  0  0  0  0  0  0
  -26.3470   14.4580   28.2180 C   0  0  0  0  0  0  0  0  0  0  0  0
  -26.8480   15.1400   27.5780 H   0  0  0  0  0  0  0  0  0  0  0  0
  -25.1750   14.0230   27.8450 N   0  0  0  0  0  0  0  0  0  0  0  0
  1  2  2  0
  2  3  1  0
  2 13  1  0
  3  4  1  0
  3  5  1  0
  5  6  1  0
  5  7  1  0
  5 10  1  0
  7  8  1  0
  7  9  1  0
  7 10  1  0
 10 11  1  0
 10 12  1  0
 13 14  2  0
 13 17  1  0
 14 15  1  0
 14 25  1  0
 15 16  1  0
 15 19  1  0
 16 17  2  0
 17 18  1  0
 19 20  1  0
 19 21  2  0
 21 22  1  0
 21 23  1  0
 23 24  1  0
 23 25  2  0
M  END
>  <EnInt_ele>  (1) 
-9.218369

>  <EnInt_vdw>  (1) 
3.690457

>  <EnInt_tot>  (1) 
-5.527913

>  <Charges>  (1) 
-0.57 0.72 -0.58 0.37 0.05 0.10 -0.20 0.10 0.10 -0.20 0.10 0.10 -0.09 -0.03 0.60 -0.71 0.14 0.15 -0.18 0.15 -0.14 0.15 0.38 0.06 -0.58

$$$$
