
     RDKit          3D

 23 24  0  0  1  0  0  0  0  0999 V2000
  -17.1560   15.8680   25.8850 C   0  0  0  0  0  0  0  0  0  0  0  0
  -17.1030   15.6340   26.9510 H   0  0  0  0  0  0  0  0  0  0  0  0
  -17.8350   16.7080   25.7180 H   0  0  0  0  0  0  0  0  0  0  0  0
  -16.1560   16.1090   25.5170 H   0  0  0  0  0  0  0  0  0  0  0  0
  -17.6560   14.7320   25.1600 N   0  0  0  0  0  0  0  0  0  0  0  0
  -17.5060   14.6720   23.8280 N   0  0  0  0  0  0  0  0  0  0  0  0
  -18.0550   13.5560   23.4130 N   0  0  0  0  0  0  0  0  0  0  0  0
  -18.5400   12.9240   24.5010 C   0  0  0  0  0  0  0  0  0  0  0  0
  -18.2880   13.6450   25.6050 C   0  0  0  0  0  0  0  0  0  0  0  0
  -18.6400   13.2820   27.0030 C   0  0  0  0  0  0  0  0  0  0  0  0
  -17.7210   12.9630   27.5120 H   0  0  0  0  0  0  0  0  0  0  0  0
  -19.0160   14.1550   27.5450 H   0  0  0  0  0  0  0  0  0  0  0  0
  -19.6430   12.1020   27.0120 C   0  0  0  0  0  0  0  0  0  0  0  0
  -21.0860   12.6150   26.9700 C   0  0  0  0  0  0  0  0  0  0  0  0
  -21.9840   11.8220   27.3310 O   0  0  0  0  0  0  0  0  0  0  0  0
  -21.2830   13.7720   26.5400 O   0  0  0  0  0  0  0  0  0  0  0  0
  -19.3190   11.0470   25.9230 C   0  0  0  0  0  0  0  0  0  0  0  0
  -18.3400   10.6070   26.1590 H   0  0  0  0  0  0  0  0  0  0  0  0
  -20.0400   10.2220   25.9480 H   0  0  0  0  0  0  0  0  0  0  0  0
  -19.2630   11.6330   24.4940 C   0  0  0  0  0  0  0  0  0  0  0  0
  -20.2770   11.7910   24.1100 H   0  0  0  0  0  0  0  0  0  0  0  0
  -18.7680   10.9200   23.8240 H   0  0  0  0  0  0  0  0  0  0  0  0
  -19.5600   11.6060   27.9880 H   0  0  0  0  0  0  0  0  0  0  0  0
  1  2  1  0
  1  3  1  0
  1  4  1  0
  1  5  1  0
  5  6  1  0
  5  9  1  0
  6  7  2  0
  7  8  1  0
  8  9  2  0
  8 20  1  0
  9 10  1  0
 10 11  1  0
 10 12  1  0
 10 13  1  0
 13 14  1  0
 13 17  1  0
 13 23  1  0
 14 15  1  0
 14 16  2  0
 17 18  1  0
 17 19  1  0
 17 20  1  0
 20 21  1  0
 20 22  1  0
M  END
>  <EnInt_ele>  (1) 
-6.644565

>  <EnInt_vdw>  (1) 
0.3403184

>  <EnInt_tot>  (1) 
-6.304246

>  <Charges>  (1) 
0.26 0.00 0.00 0.00 0.31 -0.42 -0.23 0.05 -0.33 0.18 0.00 0.00 0.06 0.66 -0.15 -0.57 0.00 0.00 0.00 0.18 0.00 0.00 0.00

$$$$
