
     RDKit          3D

 30 31  0  0  0  0  0  0  0  0999 V2000
  -25.3510   12.6350   29.6150 F   0  0  0  0  0  0  0  0  0  0  0  0
  -24.1640   12.6180   28.9920 C   0  0  0  0  0  0  0  0  0  0  0  0
  -24.1220   12.8380   27.6200 C   0  0  0  0  0  0  0  0  0  0  0  0
  -25.0170   13.0120   27.0810 H   0  0  0  0  0  0  0  0  0  0  0  0
  -22.8910   12.8180   26.9740 C   0  0  0  0  0  0  0  0  0  0  0  0
  -22.8330   12.9630   25.9280 H   0  0  0  0  0  0  0  0  0  0  0  0
  -21.7190   12.5850   27.7080 C   0  0  0  0  0  0  0  0  0  0  0  0
  -20.4890   12.5640   27.0630 N   0  0  0  0  0  0  0  0  0  0  0  0
  -19.9690   11.3530   26.4120 C   0  0  0  0  0  0  0  0  0  0  0  0
  -19.0940   10.9980   26.9700 H   0  0  0  0  0  0  0  0  0  0  0  0
  -20.7030   10.5400   26.3900 H   0  0  0  0  0  0  0  0  0  0  0  0
  -19.5770   11.6750   24.9620 C   0  0  0  0  0  0  0  0  0  0  0  0
  -20.4740   11.9170   24.3790 H   0  0  0  0  0  0  0  0  0  0  0  0
  -19.1210   10.7930   24.5000 H   0  0  0  0  0  0  0  0  0  0  0  0
  -18.6940   12.8450   24.8740 N   0  0  0  0  0  0  0  0  0  0  0  0
  -17.4980   12.7240   24.2200 C   0  0  0  0  0  0  0  0  0  0  0  0
  -17.0300   11.6610   23.8490 O   0  0  0  0  0  0  0  0  0  0  0  0
  -16.8400   13.8590   23.9760 N   0  0  0  0  0  0  0  0  0  0  0  0
  -16.6840   14.4450   24.8030 H   0  0  0  0  0  0  0  0  0  0  0  0
  -16.1080   13.8100   23.2640 H   0  0  0  0  0  0  0  0  0  0  0  0
  -19.2180   14.0450   25.5490 C   0  0  0  0  0  0  0  0  0  0  0  0
  -18.4910   14.8590   25.5540 H   0  0  0  0  0  0  0  0  0  0  0  0
  -20.0950   14.3740   24.9800 H   0  0  0  0  0  0  0  0  0  0  0  0
  -19.6100   13.7390   27.0050 C   0  0  0  0  0  0  0  0  0  0  0  0
  -20.0480   14.6300   27.4660 H   0  0  0  0  0  0  0  0  0  0  0  0
  -18.7030   13.5110   27.5800 H   0  0  0  0  0  0  0  0  0  0  0  0
  -21.7840   12.3610   29.0930 C   0  0  0  0  0  0  0  0  0  0  0  0
  -20.9040   12.1910   29.6540 H   0  0  0  0  0  0  0  0  0  0  0  0
  -23.0160   12.3790   29.7380 C   0  0  0  0  0  0  0  0  0  0  0  0
  -23.0870   12.2170   30.7820 H   0  0  0  0  0  0  0  0  0  0  0  0
  1  2  1  0
  2  3  2  0
  2 29  1  0
  3  4  1  0
  3  5  1  0
  5  6  1  0
  5  7  2  0
  7  8  1  0
  7 27  1  0
  8  9  1  0
  8 24  1  0
  9 10  1  0
  9 11  1  0
  9 12  1  0
 12 13  1  0
 12 14  1  0
 12 15  1  0
 15 16  1  0
 15 21  1  0
 16 17  2  0
 16 18  1  0
 18 19  1  0
 18 20  1  0
 21 22  1  0
 21 23  1  0
 21 24  1  0
 24 25  1  0
 24 26  1  0
 27 28  1  0
 27 29  2  0
 29 30  1  0
M  END
>  <EnInt_ele>  (1) 
-3.709095

>  <EnInt_vdw>  (1) 
-0.5656816

>  <EnInt_tot>  (1) 
-4.274777

>  <Charges>  (1) 
-0.19 0.19 -0.15 0.15 -0.15 0.15 0.10 -0.84 0.37 0.00 0.00 0.30 0.00 0.00 -0.66 0.69 -0.57 -0.80 0.37 0.37 0.30 0.00 0.00 0.37 0.00 0.00 -0.15 0.15 -0.15 0.15

$$$$
