
     RDKit          3D

 18 18  0  0  0  0  0  0  0  0999 V2000
  -22.8380   11.5080   27.0660 O   0  0  0  0  0  0  0  0  0  0  0  0
  -21.9520   12.2250   27.5080 C   0  0  0  0  0  0  0  0  0  0  0  0
  -22.2900   13.2560   28.3260 N   0  0  0  0  0  0  0  0  0  0  0  0
  -21.5350   13.8020   28.7550 H   0  0  0  0  0  0  0  0  0  0  0  0
  -23.6650   13.5910   28.6400 C   0  0  0  0  0  0  0  0  0  0  0  0
  -24.1470   13.9650   27.7300 H   0  0  0  0  0  0  0  0  0  0  0  0
  -24.1760   12.6700   28.9390 H   0  0  0  0  0  0  0  0  0  0  0  0
  -23.7520   14.6250   29.7460 C   0  0  0  0  0  0  0  0  0  0  0  0
  -23.2430   15.5500   29.4560 H   0  0  0  0  0  0  0  0  0  0  0  0
  -23.2800   14.2580   30.6640 H   0  0  0  0  0  0  0  0  0  0  0  0
  -24.7970   14.8620   29.9670 H   0  0  0  0  0  0  0  0  0  0  0  0
  -20.5600   12.0180   27.2290 C   0  0  0  0  0  0  0  0  0  0  0  0
  -20.1490   11.2990   26.1850 N   0  0  0  0  0  0  0  0  0  0  0  0
  -20.7700   10.8330   25.4950 H   0  0  0  0  0  0  0  0  0  0  0  0
  -18.8150   11.2510   26.1380 N   0  0  0  0  0  0  0  0  0  0  0  0
  -18.3550   11.9470   27.1590 N   0  0  0  0  0  0  0  0  0  0  0  0
  -19.4170   12.4190   27.8290 C   0  0  0  0  0  0  0  0  0  0  0  0
  -19.3370   13.0190   28.7000 H   0  0  0  0  0  0  0  0  0  0  0  0
  1  2  2  0
  2  3  1  0
  2 12  1  0
  3  4  1  0
  3  5  1  0
  5  6  1  0
  5  7  1  0
  5  8  1  0
  8  9  1  0
  8 10  1  0
  8 11  1  0
 12 13  1  0
 12 17  2  0
 13 14  1  0
 13 15  1  0
 15 16  2  0
 16 17  1  0
 17 18  1  0
M  END
>  <EnInt_ele>  (1) 
-22.24482

>  <EnInt_vdw>  (1) 
1.351164

>  <EnInt_tot>  (1) 
-20.89366

>  <Charges>  (1) 
-0.57 0.71 -0.73 0.37 0.30 0.00 0.00 0.00 0.00 0.00 0.00 -0.24 0.30 0.27 -0.42 -0.23 0.08 0.15

$$$$
