
     RDKit          3D

 27 27  0  0  0  0  0  0  0  0999 V2000
  -18.4820   13.4870   24.9150 S   0  0  0  0  0  0  0  0  0  0  0  0
  -19.1810   14.0780   23.7950 O   0  0  0  0  0  0  0  0  0  0  0  0
  -17.4410   14.1960   25.6280 O   0  0  0  0  0  0  0  0  0  0  0  0
  -17.8100   12.0400   24.3700 N   0  0  0  0  0  0  0  0  0  0  0  0
  -17.2820   11.5580   25.1010 H   0  0  0  0  0  0  0  0  0  0  0  0
  -17.2890   12.1600   23.4970 H   0  0  0  0  0  0  0  0  0  0  0  0
  -19.6660   12.9100   26.0780 C   0  0  0  0  0  0  0  0  0  0  0  0
  -20.1440   11.5980   26.0160 C   0  0  0  0  0  0  0  0  0  0  0  0
  -19.7620   10.9360   25.2770 H   0  0  0  0  0  0  0  0  0  0  0  0
  -21.1180   11.1550   26.9040 C   0  0  0  0  0  0  0  0  0  0  0  0
  -21.4720   10.1570   26.8400 H   0  0  0  0  0  0  0  0  0  0  0  0
  -21.6350   12.0190   27.8660 C   0  0  0  0  0  0  0  0  0  0  0  0
  -22.7390   11.5620   28.7800 C   0  0  0  0  0  0  0  0  0  0  0  0
  -22.3840   11.4860   29.8150 H   0  0  0  0  0  0  0  0  0  0  0  0
  -23.0980   10.5660   28.4920 H   0  0  0  0  0  0  0  0  0  0  0  0
  -23.8510   12.4870   28.7330 N   0  0  0  0  0  0  0  0  0  0  0  0
  -24.1440   12.9060   29.5990 H   0  0  0  0  0  0  0  0  0  0  0  0
  -24.4790   12.7870   27.6050 C   0  0  0  0  0  0  0  0  0  0  0  0
  -24.1540   12.3010   26.5320 O   0  0  0  0  0  0  0  0  0  0  0  0
  -25.6030   13.7740   27.7420 C   0  0  0  0  0  0  0  0  0  0  0  0
  -26.2980   13.4450   28.5190 H   0  0  0  0  0  0  0  0  0  0  0  0
  -25.1990   14.7550   28.0060 H   0  0  0  0  0  0  0  0  0  0  0  0
  -26.1440   13.8510   26.7940 H   0  0  0  0  0  0  0  0  0  0  0  0
  -21.1720   13.3310   27.9280 C   0  0  0  0  0  0  0  0  0  0  0  0
  -21.5700   14.0010   28.6480 H   0  0  0  0  0  0  0  0  0  0  0  0
  -20.1980   13.7730   27.0380 C   0  0  0  0  0  0  0  0  0  0  0  0
  -19.8600   14.7790   27.0840 H   0  0  0  0  0  0  0  0  0  0  0  0
  1  2  2  0
  1  3  2  0
  1  4  1  0
  1  7  1  0
  4  5  1  0
  4  6  1  0
  7  8  2  0
  7 26  1  0
  8  9  1  0
  8 10  1  0
 10 11  1  0
 10 12  2  0
 12 13  1  0
 12 24  1  0
 13 14  1  0
 13 15  1  0
 13 16  1  0
 16 17  1  0
 16 18  1  0
 18 19  2  0
 18 20  1  0
 20 21  1  0
 20 22  1  0
 20 23  1  0
 24 25  1  0
 24 26  2  0
 26 27  1  0
M  END
>  <EnInt_ele>  (1) 
-0.2702181

>  <EnInt_vdw>  (1) 
-1.526457

>  <EnInt_tot>  (1) 
-1.796675

>  <Charges>  (1) 
1.45 -0.65 -0.65 -0.98 0.42 0.42 -0.01 -0.15 0.15 -0.15 0.15 -0.14 0.44 0.00 0.00 -0.73 0.37 0.57 -0.57 0.06 0.00 0.00 0.00 -0.15 0.15 -0.15 0.15

$$$$
