
     RDKit          3D

 24 25  0  0  0  0  0  0  0  0999 V2000
  -23.7290   12.9060   28.7430 S   0  0  0  0  0  0  0  0  0  0  0  0
  -23.3410   14.2920   28.9160 O   0  0  0  0  0  0  0  0  0  0  0  0
  -24.6870   12.2830   29.6420 O   0  0  0  0  0  0  0  0  0  0  0  0
  -22.2610   11.8900   28.7280 C   0  0  0  0  0  0  0  0  0  0  0  0
  -21.8880   11.8250   29.7540 H   0  0  0  0  0  0  0  0  0  0  0  0
  -22.5460   10.8960   28.3730 H   0  0  0  0  0  0  0  0  0  0  0  0
  -21.2340   12.5040   27.8420 C   0  0  0  0  0  0  0  0  0  0  0  0
  -20.9170   12.0000   26.6100 N   0  0  0  0  0  0  0  0  0  0  0  0
  -21.3070   11.1510   26.1770 H   0  0  0  0  0  0  0  0  0  0  0  0
  -19.9900   12.8150   26.0480 C   0  0  0  0  0  0  0  0  0  0  0  0
  -19.7790   13.8050   26.9840 C   0  0  0  0  0  0  0  0  0  0  0  0
  -20.5700   13.5830   28.0920 N   0  0  0  0  0  0  0  0  0  0  0  0
  -18.8590   14.8240   26.7010 C   0  0  0  0  0  0  0  0  0  0  0  0
  -18.6900   15.5860   27.4160 H   0  0  0  0  0  0  0  0  0  0  0  0
  -18.1840   14.8100   25.4870 C   0  0  0  0  0  0  0  0  0  0  0  0
  -17.4860   15.5740   25.2630 H   0  0  0  0  0  0  0  0  0  0  0  0
  -18.4190   13.7830   24.5430 C   0  0  0  0  0  0  0  0  0  0  0  0
  -17.8940   13.7920   23.6220 H   0  0  0  0  0  0  0  0  0  0  0  0
  -19.3270   12.7720   24.8140 C   0  0  0  0  0  0  0  0  0  0  0  0
  -19.5120   11.9960   24.1160 H   0  0  0  0  0  0  0  0  0  0  0  0
  -24.3490   12.7260   27.0890 C   0  0  0  0  0  0  0  0  0  0  0  0
  -23.5970   13.0950   26.3900 H   0  0  0  0  0  0  0  0  0  0  0  0
  -25.2640   13.3150   27.0020 H   0  0  0  0  0  0  0  0  0  0  0  0
  -24.5650   11.6710   26.9050 H   0  0  0  0  0  0  0  0  0  0  0  0
  1  2  2  0
  1  3  2  0
  1  4  1  0
  1 21  1  0
  4  5  1  0
  4  6  1  0
  4  7  1  0
  7  8  1  0
  7 12  2  0
  8  9  1  0
  8 10  1  0
 10 11  2  0
 10 19  1  0
 11 12  1  0
 11 13  1  0
 13 14  1  0
 13 15  2  0
 15 16  1  0
 15 17  1  0
 17 18  1  0
 17 19  2  0
 19 20  1  0
 21 22  1  0
 21 23  1  0
 21 24  1  0
M  END
>  <EnInt_ele>  (1) 
5.895513

>  <EnInt_vdw>  (1) 
-2.444354

>  <EnInt_tot>  (1) 
3.451159

>  <Charges>  (1) 
1.09 -0.65 -0.65 0.29 0.00 0.00 0.01 0.03 0.27 -0.15 0.23 -0.57 -0.15 0.15 -0.15 0.15 -0.15 0.15 -0.15 0.15 0.10 0.00 0.00 0.00

$$$$
