
     RDKit          3D

 35 37  0  0  0  0  0  0  0  0999 V2000
  -17.3940   11.5350   24.0380 F   0  0  0  0  0  0  0  0  0  0  0  0
  -18.4410   11.8070   24.8310 C   0  0  0  0  0  0  0  0  0  0  0  0
  -18.7380   13.1330   25.1190 C   0  0  0  0  0  0  0  0  0  0  0  0
  -18.1440   13.9100   24.7140 H   0  0  0  0  0  0  0  0  0  0  0  0
  -19.8230   13.4160   25.9430 C   0  0  0  0  0  0  0  0  0  0  0  0
  -20.0520   14.4220   26.1640 H   0  0  0  0  0  0  0  0  0  0  0  0
  -20.5920   12.3670   26.4780 C   0  0  0  0  0  0  0  0  0  0  0  0
  -21.6660   12.6430   27.3160 N   0  0  0  0  0  0  0  0  0  0  0  0
  -21.5190   12.7840   28.7720 C   0  0  0  0  0  0  0  0  0  0  0  0
  -20.5090   12.5610   29.1290 H   0  0  0  0  0  0  0  0  0  0  0  0
  -21.7150   13.8320   29.0320 H   0  0  0  0  0  0  0  0  0  0  0  0
  -22.5330   11.8870   29.5010 C   0  0  0  0  0  0  0  0  0  0  0  0
  -22.4690   12.0570   30.5780 H   0  0  0  0  0  0  0  0  0  0  0  0
  -22.2970   10.8310   29.3210 H   0  0  0  0  0  0  0  0  0  0  0  0
  -23.8950   12.1100   28.9960 N   0  0  0  0  0  0  0  0  0  0  0  0
  -24.9800   12.4290   29.7780 C   0  0  0  0  0  0  0  0  0  0  0  0
  -26.0630   12.5780   29.2440 O   0  0  0  0  0  0  0  0  0  0  0  0
  -24.8090   12.5760   31.2410 C   0  0  0  0  0  0  0  0  0  0  0  0
  -24.2240   13.4430   31.5320 H   0  0  0  0  0  0  0  0  0  0  0  0
  -24.6250   11.3520   32.1100 C   0  0  0  0  0  0  0  0  0  0  0  0
  -24.6460   10.3770   31.6360 H   0  0  0  0  0  0  0  0  0  0  0  0
  -23.9390   11.4230   32.9450 H   0  0  0  0  0  0  0  0  0  0  0  0
  -25.9050   12.1270   32.1800 C   0  0  0  0  0  0  0  0  0  0  0  0
  -26.7930   11.6680   31.7600 H   0  0  0  0  0  0  0  0  0  0  0  0
  -26.0890   12.7230   33.0660 H   0  0  0  0  0  0  0  0  0  0  0  0
  -24.0260   11.9610   27.5420 C   0  0  0  0  0  0  0  0  0  0  0  0
  -23.8340   10.9060   27.3140 H   0  0  0  0  0  0  0  0  0  0  0  0
  -25.0420   12.1890   27.2040 H   0  0  0  0  0  0  0  0  0  0  0  0
  -23.0230   12.8510   26.7870 C   0  0  0  0  0  0  0  0  0  0  0  0
  -23.2920   13.9060   26.9100 H   0  0  0  0  0  0  0  0  0  0  0  0
  -23.0990   12.6080   25.7210 H   0  0  0  0  0  0  0  0  0  0  0  0
  -20.2810   11.0360   26.1520 C   0  0  0  0  0  0  0  0  0  0  0  0
  -20.8840   10.2460   26.5140 H   0  0  0  0  0  0  0  0  0  0  0  0
  -19.1940   10.7540   25.3310 C   0  0  0  0  0  0  0  0  0  0  0  0
  -18.9470    9.7560   25.0800 H   0  0  0  0  0  0  0  0  0  0  0  0
  1  2  1  0
  2  3  2  0
  2 34  1  0
  3  4  1  0
  3  5  1  0
  5  6  1  0
  5  7  2  0
  7  8  1  0
  7 32  1  0
  8  9  1  0
  8 29  1  0
  9 10  1  0
  9 11  1  0
  9 12  1  0
 12 13  1  0
 12 14  1  0
 12 15  1  0
 15 16  1  0
 15 26  1  0
 16 17  2  0
 16 18  1  0
 18 19  1  0
 18 20  1  0
 18 23  1  0
 20 21  1  0
 20 22  1  0
 20 23  1  0
 23 24  1  0
 23 25  1  0
 26 27  1  0
 26 28  1  0
 26 29  1  0
 29 30  1  0
 29 31  1  0
 32 33  1  0
 32 34  2  0
 34 35  1  0
M  END
>  <EnInt_ele>  (1) 
-4.17022

>  <EnInt_vdw>  (1) 
-0.8749011

>  <EnInt_tot>  (1) 
-5.045121

>  <Charges>  (1) 
-0.19 0.19 -0.15 0.15 -0.15 0.15 0.10 -0.84 0.37 0.00 0.00 0.30 0.00 0.00 -0.66 0.63 -0.57 -0.10 0.10 -0.20 0.10 0.10 -0.20 0.10 0.10 0.30 0.00 0.00 0.37 0.00 0.00 -0.15 0.15 -0.15 0.15

$$$$
