
     RDKit          3D

 14 14  0  0  0  0  0  0  0  0999 V2000
  -19.0030   11.5450   23.2080 O   0  0  0  0  0  0  0  0  0  0  0  0
  -18.4410   11.7680   24.3160 C   0  0  0  0  0  0  0  0  0  0  0  0
  -17.7300   10.8670   24.8510 O   0  0  0  0  0  0  0  0  0  0  0  0
  -18.6100   13.0580   24.9720 C   0  0  0  0  0  0  0  0  0  0  0  0
  -18.8930   13.2920   26.3080 C   0  0  0  0  0  0  0  0  0  0  0  0
  -19.0810   12.2220   27.3440 C   0  0  0  0  0  0  0  0  0  0  0  0
  -19.2990   12.6560   28.3250 H   0  0  0  0  0  0  0  0  0  0  0  0
  -18.1730   11.6200   27.4470 H   0  0  0  0  0  0  0  0  0  0  0  0
  -19.9210   11.5720   27.0800 H   0  0  0  0  0  0  0  0  0  0  0  0
  -18.9910   14.6570   26.6200 C   0  0  0  0  0  0  0  0  0  0  0  0
  -19.2000   15.0230   27.5920 H   0  0  0  0  0  0  0  0  0  0  0  0
  -18.7880   15.4690   25.5420 C   0  0  0  0  0  0  0  0  0  0  0  0
  -18.8100   16.5280   25.5200 H   0  0  0  0  0  0  0  0  0  0  0  0
  -18.4700   14.5660   24.1120 S   0  0  0  0  0  0  0  0  0  0  0  0
  1  2  1  0
  2  3  2  0
  2  4  1  0
  4  5  2  0
  4 14  1  0
  5  6  1  0
  5 10  1  0
  6  7  1  0
  6  8  1  0
  6  9  1  0
 10 11  1  0
 10 12  2  0
 12 13  1  0
 12 14  1  0
M  END
>  <EnInt_ele>  (1) 
-1.699468

>  <EnInt_vdw>  (1) 
3.992775

>  <EnInt_tot>  (1) 
2.293307

>  <Charges>  (1) 
-0.15 0.81 -0.57 -0.04 -0.18 0.18 0.00 0.00 0.00 -0.15 0.15 -0.11 0.15 -0.08

$$$$
