F421
  -OEChem-12061917243D

 19 19  0     0  0  0  0  0  0999 V2000
  -17.3316   11.7363   22.6329 C   0  0  0  0  0  0  0  0  0  0  0  0
  -15.5300   12.7798   23.3401 C   0  0  0  0  0  0  0  0  0  0  0  0
  -16.8660   12.6263   23.6193 C   0  0  0  0  0  0  0  0  0  0  0  0
  -17.5991   13.2729   24.7192 C   0  0  0  0  0  0  0  0  0  0  0  0
  -18.3507   12.9356   27.0420 C   0  0  0  0  0  0  0  0  0  0  0  0
  -18.7666   11.1294   25.4100 C   0  0  0  0  0  0  0  0  0  0  0  0
  -16.3696   11.3515   21.7900 N   0  0  0  0  0  0  0  0  0  0  0  0
  -15.2861   12.0029   22.2460 N   0  0  0  0  0  0  0  0  0  0  0  0
  -18.2193   12.4586   25.6725 N   0  0  0  0  0  0  0  0  0  0  0  0
  -17.5997   14.5034   24.7238 O   0  0  0  0  0  0  0  0  0  0  0  0
  -18.3309   11.3498   22.4900 H   0  0  0  0  0  0  0  0  0  0  0  0
  -14.7453   13.3571   23.8088 H   0  0  0  0  0  0  0  0  0  0  0  0
  -19.3008   13.4788   27.1520 H   0  0  0  0  0  0  0  0  0  0  0  0
  -18.3365   12.0786   27.7315 H   0  0  0  0  0  0  0  0  0  0  0  0
  -17.5138   13.6095   27.2773 H   0  0  0  0  0  0  0  0  0  0  0  0
  -17.9872   10.3716   25.5785 H   0  0  0  0  0  0  0  0  0  0  0  0
  -19.6131   10.9413   26.0867 H   0  0  0  0  0  0  0  0  0  0  0  0
  -19.1117   11.0745   24.3670 H   0  0  0  0  0  0  0  0  0  0  0  0
  -14.4072   11.8703   21.7615 H   0  0  0  0  0  0  0  0  0  0  0  0
  1  3  1  0  0  0  0
  1  7  2  0  0  0  0
  2  3  2  0  0  0  0
  2  8  1  0  0  0  0
  3  4  1  0  0  0  0
  4  9  1  0  0  0  0
  4 10  2  0  0  0  0
  5  9  1  0  0  0  0
  6  9  1  0  0  0  0
  7  8  1  0  0  0  0
  1 11  1  0  0  0  0
  2 12  1  0  0  0  0
  5 13  1  0  0  0  0
  5 14  1  0  0  0  0
  5 15  1  0  0  0  0
  6 16  1  0  0  0  0
  6 17  1  0  0  0  0
  6 18  1  0  0  0  0
  8 19  1  0  0  0  0
M  END
> <Chemgauss4>
-7.695964813232422

> <Chemgauss4>
-7.695965

$$$$
