F274
  -OEChem-12061916013D

 26 27  0     0  0  0  0  0  0999 V2000
  -17.6409   13.4951   28.0073 C   0  0  0  0  0  0  0  0  0  0  0  0
  -18.2230   13.2026   29.2528 C   0  0  0  0  0  0  0  0  0  0  0  0
  -18.6842   13.9852   27.2673 C   0  0  0  0  0  0  0  0  0  0  0  0
  -17.6457   11.6107   22.9990 C   0  0  0  0  0  0  0  0  0  0  0  0
  -18.8420   11.4760   23.5647 C   0  0  0  0  0  0  0  0  0  0  0  0
  -16.8390   12.7633   23.4323 C   0  0  0  0  0  0  0  0  0  0  0  0
  -19.3101   12.4506   24.5742 C   0  0  0  0  0  0  0  0  0  0  0  0
  -17.5670   12.6447   30.4462 C   0  0  0  0  0  0  0  0  0  0  0  0
  -15.4833   12.9162   22.7928 C   0  0  0  0  0  0  0  0  0  0  0  0
  -18.8122   14.4929   25.8602 C   0  0  0  0  0  0  0  0  0  0  0  0
  -19.5275   13.4894   29.2830 N   0  0  0  0  0  0  0  0  0  0  0  0
  -17.2082   13.6373   24.3113 N   0  0  0  0  0  0  0  0  0  0  0  0
  -18.4401   13.4865   24.8839 N   0  0  0  0  0  0  0  0  0  0  0  0
  -20.4229   12.2969   25.0771 O   0  0  0  0  0  0  0  0  0  0  0  0
  -19.8155   13.9868   28.0177 O   0  0  0  0  0  0  0  0  0  0  0  0
  -16.6153   13.3683   27.6929 H   0  0  0  0  0  0  0  0  0  0  0  0
  -17.2656   10.9214   22.2572 H   0  0  0  0  0  0  0  0  0  0  0  0
  -19.4997   10.6554   23.3026 H   0  0  0  0  0  0  0  0  0  0  0  0
  -17.1704   13.4434   31.0969 H   0  0  0  0  0  0  0  0  0  0  0  0
  -18.2569   12.0331   31.0552 H   0  0  0  0  0  0  0  0  0  0  0  0
  -16.7237   11.9790   30.1870 H   0  0  0  0  0  0  0  0  0  0  0  0
  -15.5782   13.5227   21.8977 H   0  0  0  0  0  0  0  0  0  0  0  0
  -15.0976   11.9345   22.5353 H   0  0  0  0  0  0  0  0  0  0  0  0
  -14.8099   13.3968   23.4958 H   0  0  0  0  0  0  0  0  0  0  0  0
  -19.8433   14.7993   25.6526 H   0  0  0  0  0  0  0  0  0  0  0  0
  -18.1741   15.3681   25.6986 H   0  0  0  0  0  0  0  0  0  0  0  0
  1  2  1  0  0  0  0
  1  3  2  0  0  0  0
  2  8  1  0  0  0  0
  2 11  2  0  0  0  0
  3 10  1  0  0  0  0
  3 15  1  0  0  0  0
  4  5  2  0  0  0  0
  4  6  1  0  0  0  0
  5  7  1  0  0  0  0
  6  9  1  0  0  0  0
  6 12  2  0  0  0  0
  7 13  1  0  0  0  0
  7 14  2  0  0  0  0
 10 13  1  0  0  0  0
 11 15  1  0  0  0  0
 12 13  1  0  0  0  0
  1 16  1  0  0  0  0
  4 17  1  0  0  0  0
  5 18  1  0  0  0  0
  8 19  1  0  0  0  0
  8 20  1  0  0  0  0
  8 21  1  0  0  0  0
  9 22  1  0  0  0  0
  9 23  1  0  0  0  0
  9 24  1  0  0  0  0
 10 25  1  0  0  0  0
 10 26  1  0  0  0  0
M  END
> <Chemgauss4>
-6.952157974243164

> <Chemgauss4>
-6.952158

$$$$
