F488
  -OEChem-12061917573D

 38 39  0     0  0  0  0  0  0999 V2000
  -19.6954   16.1931   28.8276 C   0  0  0  0  0  0  0  0  0  0  0  0
  -17.7959   14.9086   29.5883 C   0  0  0  0  0  0  0  0  0  0  0  0
  -20.0978   15.1241   28.0271 C   0  0  0  0  0  0  0  0  0  0  0  0
  -18.1983   13.8394   28.7879 C   0  0  0  0  0  0  0  0  0  0  0  0
  -18.5444   16.0854   29.6082 C   0  0  0  0  0  0  0  0  0  0  0  0
  -19.3493   13.9472   28.0073 C   0  0  0  0  0  0  0  0  0  0  0  0
  -20.1601   12.1518   24.9912 C   0  0  0  0  0  0  0  0  0  0  0  0
  -17.6958   12.7461   25.1651 C   0  0  0  0  0  0  0  0  0  0  0  0
  -18.4485   10.8983   23.7217 C   0  0  0  0  0  0  0  0  0  0  0  0
  -16.7463   13.1935   24.0522 C   0  0  0  0  0  0  0  0  0  0  0  0
  -17.4900   11.3842   22.6351 C   0  0  0  0  0  0  0  0  0  0  0  0
  -18.1143   17.2281   30.4644 C   0  0  0  0  0  0  0  0  0  0  0  0
  -15.3921   12.4838   22.1887 C   0  0  0  0  0  0  0  0  0  0  0  0
  -20.4463   13.2045   26.0323 C   0  0  0  0  0  0  0  0  0  0  0  0
  -18.8259   11.9869   24.6219 N   0  0  0  0  0  0  0  0  0  0  0  0
  -16.3224   12.0504   23.2303 N   0  0  0  0  0  0  0  0  0  0  0  0
  -21.0947   11.4997   24.5189 O   0  0  0  0  0  0  0  0  0  0  0  0
  -19.7468   12.8933   27.2195 O   0  0  0  0  0  0  0  0  0  0  0  0
  -20.2845   17.1062   28.8368 H   0  0  0  0  0  0  0  0  0  0  0  0
  -16.8975   14.8157   30.1932 H   0  0  0  0  0  0  0  0  0  0  0  0
  -20.9957   15.2139   27.4214 H   0  0  0  0  0  0  0  0  0  0  0  0
  -17.6113   12.9254   28.7771 H   0  0  0  0  0  0  0  0  0  0  0  0
  -17.1759   12.0852   25.8698 H   0  0  0  0  0  0  0  0  0  0  0  0
  -18.0276   13.6212   25.7274 H   0  0  0  0  0  0  0  0  0  0  0  0
  -19.3353   10.4522   23.2599 H   0  0  0  0  0  0  0  0  0  0  0  0
  -17.9743   10.1217   24.3346 H   0  0  0  0  0  0  0  0  0  0  0  0
  -17.2362   13.9602   23.4372 H   0  0  0  0  0  0  0  0  0  0  0  0
  -15.8692   13.6593   24.5173 H   0  0  0  0  0  0  0  0  0  0  0  0
  -17.1624   10.5139   22.0535 H   0  0  0  0  0  0  0  0  0  0  0  0
  -18.0205   12.0564   21.9476 H   0  0  0  0  0  0  0  0  0  0  0  0
  -18.5659   17.1499   31.4610 H   0  0  0  0  0  0  0  0  0  0  0  0
  -17.0227   17.2522   30.5782 H   0  0  0  0  0  0  0  0  0  0  0  0
  -18.4089   18.1894   30.0235 H   0  0  0  0  0  0  0  0  0  0  0  0
  -15.0866   11.6164   21.5851 H   0  0  0  0  0  0  0  0  0  0  0  0
  -15.8850   13.2249   21.5422 H   0  0  0  0  0  0  0  0  0  0  0  0
  -14.5047   12.9366   22.6551 H   0  0  0  0  0  0  0  0  0  0  0  0
  -21.5129   13.2381   26.2347 H   0  0  0  0  0  0  0  0  0  0  0  0
  -20.1119   14.1689   25.6617 H   0  0  0  0  0  0  0  0  0  0  0  0
  1  3  2  0  0  0  0
  1  5  1  0  0  0  0
  2  4  1  0  0  0  0
  2  5  2  0  0  0  0
  3  6  1  0  0  0  0
  4  6  2  0  0  0  0
  5 12  1  0  0  0  0
  6 18  1  0  0  0  0
  7 14  1  0  0  0  0
  7 15  1  0  0  0  0
  7 17  2  0  0  0  0
  8 10  1  0  0  0  0
  8 15  1  0  0  0  0
  9 11  1  0  0  0  0
  9 15  1  0  0  0  0
 10 16  1  0  0  0  0
 11 16  1  0  0  0  0
 13 16  1  0  0  0  0
 14 18  1  0  0  0  0
  1 19  1  0  0  0  0
  2 20  1  0  0  0  0
  3 21  1  0  0  0  0
  4 22  1  0  0  0  0
  8 23  1  0  0  0  0
  8 24  1  0  0  0  0
  9 25  1  0  0  0  0
  9 26  1  0  0  0  0
 10 27  1  0  0  0  0
 10 28  1  0  0  0  0
 11 29  1  0  0  0  0
 11 30  1  0  0  0  0
 12 31  1  0  0  0  0
 12 32  1  0  0  0  0
 12 33  1  0  0  0  0
 13 34  1  0  0  0  0
 13 35  1  0  0  0  0
 13 36  1  0  0  0  0
 14 37  1  0  0  0  0
 14 38  1  0  0  0  0
M  END
> <Chemgauss4>
-8.642534255981445

> <Chemgauss4>
-8.642534

$$$$
