F503
  -OEChem-12061918023D

 29 30  0     0  0  0  0  0  0999 V2000
  -16.4173   16.0685   27.4132 C   0  0  0  0  0  0  0  0  0  0  0  0
  -16.6585   15.4078   28.6177 C   0  0  0  0  0  0  0  0  0  0  0  0
  -17.0923   15.6785   26.2565 C   0  0  0  0  0  0  0  0  0  0  0  0
  -17.5747   14.3571   28.6655 C   0  0  0  0  0  0  0  0  0  0  0  0
  -18.0085   14.6278   26.3043 C   0  0  0  0  0  0  0  0  0  0  0  0
  -18.2497   13.9671   27.5088 C   0  0  0  0  0  0  0  0  0  0  0  0
  -16.7358   13.0020   24.0274 C   0  0  0  0  0  0  0  0  0  0  0  0
  -18.6775   11.6327   24.9682 C   0  0  0  0  0  0  0  0  0  0  0  0
  -19.0894   12.1015   23.6060 C   0  0  0  0  0  0  0  0  0  0  0  0
  -18.1588   12.9552   24.4425 C   0  0  0  0  0  0  0  0  0  0  0  0
  -14.9804   14.5025   23.1056 C   0  0  0  0  0  0  0  0  0  0  0  0
  -18.7379   14.2084   25.0490 C   0  0  0  0  0  0  0  0  0  0  0  0
  -16.3265   14.2362   23.5597 N   0  0  0  0  0  0  0  0  0  0  0  0
  -16.0455   11.9939   24.1216 O   0  0  0  0  0  0  0  0  0  0  0  0
  -19.1284   12.9565   27.5647 F   0  0  0  0  0  0  0  0  0  0  0  0
  -15.7034   16.8865   27.3757 H   0  0  0  0  0  0  0  0  0  0  0  0
  -16.1326   15.7110   29.5182 H   0  0  0  0  0  0  0  0  0  0  0  0
  -16.8974   16.1987   25.3224 H   0  0  0  0  0  0  0  0  0  0  0  0
  -17.7630   13.8427   29.6034 H   0  0  0  0  0  0  0  0  0  0  0  0
  -19.4261   11.6426   25.7520 H   0  0  0  0  0  0  0  0  0  0  0  0
  -17.9954   10.7925   25.0260 H   0  0  0  0  0  0  0  0  0  0  0  0
  -18.6841   11.5758   22.7491 H   0  0  0  0  0  0  0  0  0  0  0  0
  -20.1149   12.4264   23.4735 H   0  0  0  0  0  0  0  0  0  0  0  0
  -14.3681   14.8452   23.9528 H   0  0  0  0  0  0  0  0  0  0  0  0
  -14.5457   13.5824   22.6878 H   0  0  0  0  0  0  0  0  0  0  0  0
  -15.0027   15.2824   22.3303 H   0  0  0  0  0  0  0  0  0  0  0  0
  -19.8041   14.0635   25.2837 H   0  0  0  0  0  0  0  0  0  0  0  0
  -18.7082   15.0353   24.3223 H   0  0  0  0  0  0  0  0  0  0  0  0
  -17.0039   14.9924   23.5338 H   0  0  0  0  0  0  0  0  0  0  0  0
  1  2  1  0  0  0  0
  1  3  2  0  0  0  0
  2  4  2  0  0  0  0
  3  5  1  0  0  0  0
  4  6  1  0  0  0  0
  5  6  2  0  0  0  0
  5 12  1  0  0  0  0
  6 15  1  0  0  0  0
  7 10  1  0  0  0  0
  7 13  1  0  0  0  0
  7 14  2  0  0  0  0
  8  9  1  0  0  0  0
  8 10  1  0  0  0  0
  9 10  1  0  0  0  0
 10 12  1  0  0  0  0
 11 13  1  0  0  0  0
  1 16  1  0  0  0  0
  2 17  1  0  0  0  0
  3 18  1  0  0  0  0
  4 19  1  0  0  0  0
  8 20  1  0  0  0  0
  8 21  1  0  0  0  0
  9 22  1  0  0  0  0
  9 23  1  0  0  0  0
 11 24  1  0  0  0  0
 11 25  1  0  0  0  0
 11 26  1  0  0  0  0
 12 27  1  0  0  0  0
 12 28  1  0  0  0  0
 13 29  1  0  0  0  0
M  END
> <Chemgauss4>
-7.099389553070068

> <Chemgauss4>
-7.099390

$$$$
