F11
  -OEChem-12061915293D

 16 17  0     0  0  0  0  0  0999 V2000
  -18.8752   15.6745   26.1061 C   0  0  0  0  0  0  0  0  0  0  0  0
  -18.1245   14.7493   25.4013 C   0  0  0  0  0  0  0  0  0  0  0  0
  -18.4937   11.2875   24.1325 C   0  0  0  0  0  0  0  0  0  0  0  0
  -20.1406   15.2916   26.4932 C   0  0  0  0  0  0  0  0  0  0  0  0
  -19.7733   11.0677   24.5931 C   0  0  0  0  0  0  0  0  0  0  0  0
  -18.6606   13.4866   25.1115 C   0  0  0  0  0  0  0  0  0  0  0  0
  -17.9310   12.5235   24.4000 C   0  0  0  0  0  0  0  0  0  0  0  0
  -19.9618   13.1784   25.5450 C   0  0  0  0  0  0  0  0  0  0  0  0
  -20.6813   14.0795   26.2265 N   0  0  0  0  0  0  0  0  0  0  0  0
  -20.4987   11.9799   25.2820 N   0  0  0  0  0  0  0  0  0  0  0  0
  -16.1594   12.7938   23.7509 Br  0  0  0  0  0  0  0  0  0  0  0  0
  -18.4834   16.6559   26.3445 H   0  0  0  0  0  0  0  0  0  0  0  0
  -17.1268   15.0471   25.0946 H   0  0  0  0  0  0  0  0  0  0  0  0
  -17.9686   10.5109   23.5874 H   0  0  0  0  0  0  0  0  0  0  0  0
  -20.7823   15.9681   27.0479 H   0  0  0  0  0  0  0  0  0  0  0  0
  -20.2729   10.1204   24.4190 H   0  0  0  0  0  0  0  0  0  0  0  0
  1  2  1  0  0  0  0
  1  4  2  0  0  0  0
  2  6  2  0  0  0  0
  3  5  1  0  0  0  0
  3  7  2  0  0  0  0
  4  9  1  0  0  0  0
  5 10  2  0  0  0  0
  6  7  1  0  0  0  0
  6  8  1  0  0  0  0
  7 11  1  0  0  0  0
  8  9  2  0  0  0  0
  8 10  1  0  0  0  0
  1 12  1  0  0  0  0
  2 13  1  0  0  0  0
  3 14  1  0  0  0  0
  4 15  1  0  0  0  0
  5 16  1  0  0  0  0
M  END
> <Chemgauss4>
-6.719213008880615

> <Chemgauss4>
-6.719213

$$$$
