F95
  -OEChem-12061915443D

 27 27  0     0  0  0  0  0  0999 V2000
  -18.8850   11.2880   24.5435 C   0  0  0  0  0  0  0  0  0  0  0  0
  -18.3134   13.5705   25.0919 C   0  0  0  0  0  0  0  0  0  0  0  0
  -17.8136   11.2339   23.6520 C   0  0  0  0  0  0  0  0  0  0  0  0
  -17.2419   13.5163   24.2004 C   0  0  0  0  0  0  0  0  0  0  0  0
  -19.1350   12.4564   25.2634 C   0  0  0  0  0  0  0  0  0  0  0  0
  -16.9920   12.3480   23.4805 C   0  0  0  0  0  0  0  0  0  0  0  0
  -21.8710   14.2775   26.9559 C   0  0  0  0  0  0  0  0  0  0  0  0
  -21.9652   15.7179   27.3361 C   0  0  0  0  0  0  0  0  0  0  0  0
  -20.2809   12.5148   26.2161 C   0  0  0  0  0  0  0  0  0  0  0  0
  -14.4026   11.7221   23.3928 N   0  0  0  0  0  0  0  0  0  0  0  0
  -20.5953   13.8640   26.6127 N   0  0  0  0  0  0  0  0  0  0  0  0
  -22.8794   13.5813   26.9713 O   0  0  0  0  0  0  0  0  0  0  0  0
  -15.9310   11.2557   21.3700 O   0  0  0  0  0  0  0  0  0  0  0  0
  -15.3326   13.6357   21.9402 O   0  0  0  0  0  0  0  0  0  0  0  0
  -15.6496   12.2797   22.3664 S   0  0  0  0  0  0  0  0  0  0  0  0
  -19.5199   10.4152   24.6703 H   0  0  0  0  0  0  0  0  0  0  0  0
  -18.5008   14.4851   25.6482 H   0  0  0  0  0  0  0  0  0  0  0  0
  -17.6280   10.3189   23.0957 H   0  0  0  0  0  0  0  0  0  0  0  0
  -16.6084   14.3903   24.0742 H   0  0  0  0  0  0  0  0  0  0  0  0
  -22.1739   16.3683   26.4715 H   0  0  0  0  0  0  0  0  0  0  0  0
  -22.7818   15.9118   28.0500 H   0  0  0  0  0  0  0  0  0  0  0  0
  -21.0631   16.1413   27.8061 H   0  0  0  0  0  0  0  0  0  0  0  0
  -21.1880   12.0818   25.7716 H   0  0  0  0  0  0  0  0  0  0  0  0
  -20.0732   11.9444   27.1318 H   0  0  0  0  0  0  0  0  0  0  0  0
  -14.0702   10.7581   23.2676 H   0  0  0  0  0  0  0  0  0  0  0  0
  -13.6637   12.3848   23.6576 H   0  0  0  0  0  0  0  0  0  0  0  0
  -19.8416   14.5471   26.6420 H   0  0  0  0  0  0  0  0  0  0  0  0
  1  3  2  0  0  0  0
  1  5  1  0  0  0  0
  2  4  1  0  0  0  0
  2  5  2  0  0  0  0
  3  6  1  0  0  0  0
  4  6  2  0  0  0  0
  5  9  1  0  0  0  0
  6 15  1  0  0  0  0
  7  8  1  0  0  0  0
  7 11  1  0  0  0  0
  7 12  2  0  0  0  0
  9 11  1  0  0  0  0
 10 15  1  0  0  0  0
 13 15  2  0  0  0  0
 14 15  2  0  0  0  0
  1 16  1  0  0  0  0
  2 17  1  0  0  0  0
  3 18  1  0  0  0  0
  4 19  1  0  0  0  0
  8 20  1  0  0  0  0
  8 21  1  0  0  0  0
  8 22  1  0  0  0  0
  9 23  1  0  0  0  0
  9 24  1  0  0  0  0
 10 25  1  0  0  0  0
 10 26  1  0  0  0  0
 11 27  1  0  0  0  0
M  END
> <Chemgauss4>
-7.803373336791992

> <Chemgauss4>
-7.803373

$$$$
