F368
  -OEChem-12061917163D

 29 30  0     0  0  0  0  0  0999 V2000
  -18.9071   10.9875   24.8867 C   0  0  0  0  0  0  0  0  0  0  0  0
  -17.5953   12.6457   24.2828 C   0  0  0  0  0  0  0  0  0  0  0  0
  -18.4252   12.2438   25.3008 C   0  0  0  0  0  0  0  0  0  0  0  0
  -18.2163   14.2001   26.8671 C   0  0  0  0  0  0  0  0  0  0  0  0
  -17.2505   14.9461   29.7112 C   0  0  0  0  0  0  0  0  0  0  0  0
  -18.2923   13.8363   29.4802 C   0  0  0  0  0  0  0  0  0  0  0  0
  -18.1606   15.8841   28.8976 C   0  0  0  0  0  0  0  0  0  0  0  0
  -18.7730   14.6236   28.2339 C   0  0  0  0  0  0  0  0  0  0  0  0
  -15.8397   12.6850   22.0285 C   0  0  0  0  0  0  0  0  0  0  0  0
  -16.9115   11.6114   22.1053 C   0  0  0  0  0  0  0  0  0  0  0  0
  -18.4238   10.6160   23.6983 N   0  0  0  0  0  0  0  0  0  0  0  0
  -17.6296   11.6449   23.3568 N   0  0  0  0  0  0  0  0  0  0  0  0
  -18.7098   12.9580   26.4888 N   0  0  0  0  0  0  0  0  0  0  0  0
  -17.4422   14.9262   26.2518 O   0  0  0  0  0  0  0  0  0  0  0  0
  -19.5898   10.3251   25.3998 H   0  0  0  0  0  0  0  0  0  0  0  0
  -16.9980   13.5365   24.1409 H   0  0  0  0  0  0  0  0  0  0  0  0
  -17.1433   15.2385   30.7634 H   0  0  0  0  0  0  0  0  0  0  0  0
  -16.2572   14.7625   29.2911 H   0  0  0  0  0  0  0  0  0  0  0  0
  -17.8520   12.8569   29.2533 H   0  0  0  0  0  0  0  0  0  0  0  0
  -19.0316   13.7133   30.2779 H   0  0  0  0  0  0  0  0  0  0  0  0
  -18.8528   16.4938   29.4868 H   0  0  0  0  0  0  0  0  0  0  0  0
  -17.6152   16.5389   28.2057 H   0  0  0  0  0  0  0  0  0  0  0  0
  -19.8701   14.6814   28.1883 H   0  0  0  0  0  0  0  0  0  0  0  0
  -16.2729   13.6851   22.1360 H   0  0  0  0  0  0  0  0  0  0  0  0
  -15.3242   12.6382   21.0643 H   0  0  0  0  0  0  0  0  0  0  0  0
  -15.0946   12.5573   22.8208 H   0  0  0  0  0  0  0  0  0  0  0  0
  -16.4687   10.6149   21.9969 H   0  0  0  0  0  0  0  0  0  0  0  0
  -17.6394   11.7337   21.2953 H   0  0  0  0  0  0  0  0  0  0  0  0
  -19.3517   12.4978   27.1308 H   0  0  0  0  0  0  0  0  0  0  0  0
  1  3  1  0  0  0  0
  1 11  2  0  0  0  0
  2  3  2  0  0  0  0
  2 12  1  0  0  0  0
  3 13  1  0  0  0  0
  4  8  1  0  0  0  0
  4 13  1  0  0  0  0
  4 14  2  0  0  0  0
  5  6  1  0  0  0  0
  5  7  1  0  0  0  0
  6  8  1  0  0  0  0
  7  8  1  0  0  0  0
  9 10  1  0  0  0  0
 10 12  1  0  0  0  0
 11 12  1  0  0  0  0
  1 15  1  0  0  0  0
  2 16  1  0  0  0  0
  5 17  1  0  0  0  0
  5 18  1  0  0  0  0
  6 19  1  0  0  0  0
  6 20  1  0  0  0  0
  7 21  1  0  0  0  0
  7 22  1  0  0  0  0
  8 23  1  0  0  0  0
  9 24  1  0  0  0  0
  9 25  1  0  0  0  0
  9 26  1  0  0  0  0
 10 27  1  0  0  0  0
 10 28  1  0  0  0  0
 13 29  1  0  0  0  0
M  END
> <Chemgauss4>
-6.566526412963867

> <Chemgauss4>
-6.566526

$$$$
