F309
  -OEChem-12061916023D

 15 15  0     0  0  0  0  0  0999 V2000
  -19.7939   11.7275   24.7701 C   0  0  0  0  0  0  0  0  0  0  0  0
  -18.5851   11.4493   24.1710 C   0  0  0  0  0  0  0  0  0  0  0  0
  -19.7785   12.9793   25.4505 C   0  0  0  0  0  0  0  0  0  0  0  0
  -18.5582   13.6101   25.3457 C   0  0  0  0  0  0  0  0  0  0  0  0
  -18.1418   14.8669   25.8809 C   0  0  0  0  0  0  0  0  0  0  0  0
  -20.9471   13.5261   26.1818 C   0  0  0  0  0  0  0  0  0  0  0  0
  -18.8369   15.6488   26.5664 O   0  0  0  0  0  0  0  0  0  0  0  0
  -16.8429   15.1867   25.5781 O   0  0  0  0  0  0  0  0  0  0  0  0
  -17.4382   12.6943   24.4298 S   0  0  0  0  0  0  0  0  0  0  0  0
  -20.6457   11.0611   24.7195 H   0  0  0  0  0  0  0  0  0  0  0  0
  -18.3206   10.5745   23.5939 H   0  0  0  0  0  0  0  0  0  0  0  0
  -20.9378   13.1999   27.2321 H   0  0  0  0  0  0  0  0  0  0  0  0
  -20.9579   14.6267   26.1667 H   0  0  0  0  0  0  0  0  0  0  0  0
  -21.8975   13.2001   25.7318 H   0  0  0  0  0  0  0  0  0  0  0  0
  -16.5467   16.0482   25.9422 H   0  0  0  0  0  0  0  0  0  0  0  0
  1  2  2  0  0  0  0
  1  3  1  0  0  0  0
  2  9  1  0  0  0  0
  3  4  2  0  0  0  0
  3  6  1  0  0  0  0
  4  5  1  0  0  0  0
  4  9  1  0  0  0  0
  5  7  2  0  0  0  0
  5  8  1  0  0  0  0
  1 10  1  0  0  0  0
  2 11  1  0  0  0  0
  6 12  1  0  0  0  0
  6 13  1  0  0  0  0
  6 14  1  0  0  0  0
  8 15  1  0  0  0  0
M  END
> <Chemgauss4>
-5.999980926513672

> <Chemgauss4>
-5.999981

$$$$
