F14
  -OEChem-12061915323D

 19 19  0     0  0  0  0  0  0999 V2000
  -16.6281   11.6039   22.1899 C   0  0  0  0  0  0  0  0  0  0  0  0
  -17.2566   12.5140   24.0903 C   0  0  0  0  0  0  0  0  0  0  0  0
  -16.3560   12.6721   23.0655 C   0  0  0  0  0  0  0  0  0  0  0  0
  -19.5251   12.7345   26.8807 C   0  0  0  0  0  0  0  0  0  0  0  0
  -19.0577   10.8362   24.5597 C   0  0  0  0  0  0  0  0  0  0  0  0
  -20.1832   11.8300   24.8138 C   0  0  0  0  0  0  0  0  0  0  0  0
  -17.6236   10.8247   22.6210 N   0  0  0  0  0  0  0  0  0  0  0  0
  -17.9848   11.4038   23.7787 N   0  0  0  0  0  0  0  0  0  0  0  0
  -19.6705   12.9723   25.4872 O   0  0  0  0  0  0  0  0  0  0  0  0
  -15.0528   13.9814   22.8373 Br  0  0  0  0  0  0  0  0  0  0  0  0
  -16.1457   11.3563   21.2548 H   0  0  0  0  0  0  0  0  0  0  0  0
  -17.4375   13.0821   24.9928 H   0  0  0  0  0  0  0  0  0  0  0  0
  -19.1301   13.6309   27.3648 H   0  0  0  0  0  0  0  0  0  0  0  0
  -18.8461   11.8928   27.0386 H   0  0  0  0  0  0  0  0  0  0  0  0
  -20.5034   12.4954   27.3044 H   0  0  0  0  0  0  0  0  0  0  0  0
  -19.4239    9.9522   24.0248 H   0  0  0  0  0  0  0  0  0  0  0  0
  -18.6223   10.4992   25.5074 H   0  0  0  0  0  0  0  0  0  0  0  0
  -20.6047   12.1639   23.8605 H   0  0  0  0  0  0  0  0  0  0  0  0
  -20.9830   11.3935   25.4207 H   0  0  0  0  0  0  0  0  0  0  0  0
  1  3  1  0  0  0  0
  1  7  2  0  0  0  0
  2  3  2  0  0  0  0
  2  8  1  0  0  0  0
  3 10  1  0  0  0  0
  4  9  1  0  0  0  0
  5  6  1  0  0  0  0
  5  8  1  0  0  0  0
  6  9  1  0  0  0  0
  7  8  1  0  0  0  0
  1 11  1  0  0  0  0
  2 12  1  0  0  0  0
  4 13  1  0  0  0  0
  4 14  1  0  0  0  0
  4 15  1  0  0  0  0
  5 16  1  0  0  0  0
  5 17  1  0  0  0  0
  6 18  1  0  0  0  0
  6 19  1  0  0  0  0
M  END
> <Chemgauss4>
-6.62094783782959

> <Chemgauss4>
-6.620948

$$$$
