F741
  -OEChem-12061918503D

 25 27  0     0  0  0  0  0  0999 V2000
  -19.9602   11.4142   24.5833 C   0  0  0  0  0  0  0  0  0  0  0  0
  -18.8209   12.2119   24.4101 C   0  0  0  0  0  0  0  0  0  0  0  0
  -19.0871   13.3648   25.1129 C   0  0  0  0  0  0  0  0  0  0  0  0
  -20.2698   15.3403   26.6785 C   0  0  0  0  0  0  0  0  0  0  0  0
  -20.9320   14.2025   26.4461 C   0  0  0  0  0  0  0  0  0  0  0  0
  -18.9281   15.4139   26.0466 C   0  0  0  0  0  0  0  0  0  0  0  0
  -17.6249   11.9301   23.6749 C   0  0  0  0  0  0  0  0  0  0  0  0
  -15.2597   13.1379   21.4864 C   0  0  0  0  0  0  0  0  0  0  0  0
  -14.5882   14.0017   22.5118 C   0  0  0  0  0  0  0  0  0  0  0  0
  -15.3645   12.7887   22.9457 C   0  0  0  0  0  0  0  0  0  0  0  0
  -20.8924   11.9972   25.3361 N   0  0  0  0  0  0  0  0  0  0  0  0
  -18.3626   14.5026   25.3146 N   0  0  0  0  0  0  0  0  0  0  0  0
  -20.3584   13.2023   25.6659 N   0  0  0  0  0  0  0  0  0  0  0  0
  -16.6154   12.9145   23.6586 N   0  0  0  0  0  0  0  0  0  0  0  0
  -17.4823   10.8529   23.0463 O   0  0  0  0  0  0  0  0  0  0  0  0
  -20.1559   10.4259   24.1920 H   0  0  0  0  0  0  0  0  0  0  0  0
  -20.6481   16.1595   27.2719 H   0  0  0  0  0  0  0  0  0  0  0  0
  -21.9211   14.0138   26.8456 H   0  0  0  0  0  0  0  0  0  0  0  0
  -18.3793   16.3510   26.2364 H   0  0  0  0  0  0  0  0  0  0  0  0
  -16.1338   13.5373   20.9867 H   0  0  0  0  0  0  0  0  0  0  0  0
  -14.6318   12.5138   20.8625 H   0  0  0  0  0  0  0  0  0  0  0  0
  -13.5080   13.9594   22.5786 H   0  0  0  0  0  0  0  0  0  0  0  0
  -15.0117   14.9807   22.7002 H   0  0  0  0  0  0  0  0  0  0  0  0
  -14.7854   11.9364   23.2846 H   0  0  0  0  0  0  0  0  0  0  0  0
  -16.7935   13.7974   24.1260 H   0  0  0  0  0  0  0  0  0  0  0  0
  1  2  1  0  0  0  0
  1 11  2  0  0  0  0
  2  3  2  0  0  0  0
  2  7  1  0  0  0  0
  3 12  1  0  0  0  0
  3 13  1  0  0  0  0
  4  5  2  0  0  0  0
  4  6  1  0  0  0  0
  5 13  1  0  0  0  0
  6 12  2  0  0  0  0
  7 14  1  0  0  0  0
  7 15  2  0  0  0  0
  8  9  1  0  0  0  0
  8 10  1  0  0  0  0
  9 10  1  0  0  0  0
 10 14  1  0  0  0  0
 11 13  1  0  0  0  0
  1 16  1  0  0  0  0
  4 17  1  0  0  0  0
  5 18  1  0  0  0  0
  6 19  1  0  0  0  0
  8 20  1  0  0  0  0
  8 21  1  0  0  0  0
  9 22  1  0  0  0  0
  9 23  1  0  0  0  0
 10 24  1  0  0  0  0
 14 25  1  0  0  0  0
M  END
> <Chemgauss4>
-8.04964828491211

> <Chemgauss4>
-8.049648

$$$$
