F501
  -OEChem-12061917593D

 24 25  0     1  0  0  0  0  0999 V2000
  -19.5114   12.5865   25.0979 C   0  0  0  0  0  0  0  0  0  0  0  0
  -18.5497   13.5166   25.4019 C   0  0  0  0  0  0  0  0  0  0  0  0
  -15.8058   12.6803   22.9720 C   0  0  0  0  0  0  0  0  0  0  0  0
  -19.3432   11.5381   24.0702 C   0  0  0  0  0  0  0  0  0  0  0  0
  -17.2282   13.6730   24.7604 C   0  0  0  0  0  0  0  0  0  0  0  0
  -18.1529   11.8847   23.1470 C   0  0  0  0  0  0  0  0  0  0  0  0
  -16.9200   12.4007   23.9327 C   0  0  1  0  0  0  0  0  0  0  0  0
  -18.5457   15.3785   27.1030 C   0  0  0  0  0  0  0  0  0  0  0  0
  -20.6000   12.7686   25.8963 N   0  0  0  0  0  0  0  0  0  0  0  0
  -20.3423   13.8054   26.6944 N   0  0  0  0  0  0  0  0  0  0  0  0
  -19.1069   14.2563   26.3951 N   0  0  0  0  0  0  0  0  0  0  0  0
  -15.5912   13.7598   22.4410 O   0  0  0  0  0  0  0  0  0  0  0  0
  -15.0612   11.5666   22.7653 O   0  0  0  0  0  0  0  0  0  0  0  0
  -19.1778   10.5622   24.5373 H   0  0  0  0  0  0  0  0  0  0  0  0
  -20.2616   11.4689   23.4771 H   0  0  0  0  0  0  0  0  0  0  0  0
  -17.1987   14.5692   24.1380 H   0  0  0  0  0  0  0  0  0  0  0  0
  -16.4707   13.7779   25.5419 H   0  0  0  0  0  0  0  0  0  0  0  0
  -17.8552   10.9826   22.6083 H   0  0  0  0  0  0  0  0  0  0  0  0
  -18.4748   12.6172   22.4070 H   0  0  0  0  0  0  0  0  0  0  0  0
  -16.5605   11.6248   24.5959 H   0  0  0  0  0  0  0  0  0  0  0  0
  -18.8162   16.2885   26.5612 H   0  0  0  0  0  0  0  0  0  0  0  0
  -18.9474   15.4052   28.1198 H   0  0  0  0  0  0  0  0  0  0  0  0
  -17.4586   15.2691   27.1503 H   0  0  0  0  0  0  0  0  0  0  0  0
  -14.3260   11.7290   22.1364 H   0  0  0  0  0  0  0  0  0  0  0  0
  1  2  2  0  0  0  0
  1  4  1  0  0  0  0
  1  9  1  0  0  0  0
  2  5  1  0  0  0  0
  2 11  1  0  0  0  0
  3  7  1  0  0  0  0
  3 12  2  0  0  0  0
  3 13  1  0  0  0  0
  4  6  1  0  0  0  0
  5  7  1  0  0  0  0
  6  7  1  0  0  0  0
  8 11  1  0  0  0  0
  9 10  2  0  0  0  0
 10 11  1  0  0  0  0
  4 14  1  0  0  0  0
  4 15  1  0  0  0  0
  5 16  1  0  0  0  0
  5 17  1  0  0  0  0
  6 18  1  0  0  0  0
  6 19  1  0  0  0  0
  7 20  1  0  0  0  0
  8 21  1  0  0  0  0
  8 22  1  0  0  0  0
  8 23  1  0  0  0  0
 13 24  1  0  0  0  0
M  END
> <Chemgauss4>
-7.297846794128418

> <Chemgauss4>
-7.297847

$$$$
