F616
  -OEChem-12061918263D

 26 26  0     0  0  0  0  0  0999 V2000
  -16.9422   13.7390   24.4325 C   0  0  0  0  0  0  0  0  0  0  0  0
  -18.6822   12.0629   24.4242 C   0  0  0  0  0  0  0  0  0  0  0  0
  -16.3279   13.1067   23.3515 C   0  0  0  0  0  0  0  0  0  0  0  0
  -18.0679   11.4306   23.3432 C   0  0  0  0  0  0  0  0  0  0  0  0
  -18.1193   13.2170   24.9689 C   0  0  0  0  0  0  0  0  0  0  0  0
  -16.8908   11.9525   22.8068 C   0  0  0  0  0  0  0  0  0  0  0  0
  -17.5984   12.5683   30.3976 C   0  0  0  0  0  0  0  0  0  0  0  0
  -18.7847   13.9010   26.1378 C   0  0  0  0  0  0  0  0  0  0  0  0
  -18.2944   13.3841   27.4881 C   0  0  0  0  0  0  0  0  0  0  0  0
  -18.9691   14.0389   28.6233 N   0  0  0  0  0  0  0  0  0  0  0  0
  -19.0461   14.6170   31.1441 O   0  0  0  0  0  0  0  0  0  0  0  0
  -16.9319   15.0265   29.8330 O   0  0  0  0  0  0  0  0  0  0  0  0
  -16.3024   11.3468   21.7670 F   0  0  0  0  0  0  0  0  0  0  0  0
  -18.1225   14.2399   30.0921 S   0  0  0  0  0  0  0  0  0  0  0  0
  -16.4957   14.6374   24.8506 H   0  0  0  0  0  0  0  0  0  0  0  0
  -19.5992   11.6491   24.8353 H   0  0  0  0  0  0  0  0  0  0  0  0
  -15.4119   13.5133   22.9335 H   0  0  0  0  0  0  0  0  0  0  0  0
  -18.5056   10.5318   22.9191 H   0  0  0  0  0  0  0  0  0  0  0  0
  -17.0315   12.5501   31.3297 H   0  0  0  0  0  0  0  0  0  0  0  0
  -18.4856   11.9384   30.4772 H   0  0  0  0  0  0  0  0  0  0  0  0
  -16.9735   12.2456   29.5635 H   0  0  0  0  0  0  0  0  0  0  0  0
  -19.8683   13.7448   26.0616 H   0  0  0  0  0  0  0  0  0  0  0  0
  -18.6306   14.9855   26.0700 H   0  0  0  0  0  0  0  0  0  0  0  0
  -18.5000   12.3125   27.5742 H   0  0  0  0  0  0  0  0  0  0  0  0
  -17.2171   13.5361   27.6119 H   0  0  0  0  0  0  0  0  0  0  0  0
  -19.9731   13.8271   28.6905 H   0  0  0  0  0  0  0  0  0  0  0  0
  1  3  2  0  0  0  0
  1  5  1  0  0  0  0
  2  4  1  0  0  0  0
  2  5  2  0  0  0  0
  3  6  1  0  0  0  0
  4  6  2  0  0  0  0
  5  8  1  0  0  0  0
  6 13  1  0  0  0  0
  7 14  1  0  0  0  0
  8  9  1  0  0  0  0
  9 10  1  0  0  0  0
 10 14  1  0  0  0  0
 11 14  2  0  0  0  0
 12 14  2  0  0  0  0
  1 15  1  0  0  0  0
  2 16  1  0  0  0  0
  3 17  1  0  0  0  0
  4 18  1  0  0  0  0
  7 19  1  0  0  0  0
  7 20  1  0  0  0  0
  7 21  1  0  0  0  0
  8 22  1  0  0  0  0
  8 23  1  0  0  0  0
  9 24  1  0  0  0  0
  9 25  1  0  0  0  0
 10 26  1  0  0  0  0
M  END
> <Chemgauss4>
-7.059511661529541

> <Chemgauss4>
-7.059512

$$$$
