F393
  -OEChem-12061917233D

 24 24  0     0  0  0  0  0  0999 V2000
  -19.5814   12.2359   24.8689 C   0  0  0  0  0  0  0  0  0  0  0  0
  -17.1513   12.9053   24.6597 C   0  0  0  0  0  0  0  0  0  0  0  0
  -18.0003   10.9110   23.4859 C   0  0  0  0  0  0  0  0  0  0  0  0
  -16.3832   13.2570   23.3923 C   0  0  0  0  0  0  0  0  0  0  0  0
  -17.1994   11.3500   22.2682 C   0  0  0  0  0  0  0  0  0  0  0  0
  -20.8153   14.7253   27.2680 C   0  0  0  0  0  0  0  0  0  0  0  0
  -20.9257   13.5355   26.3387 C   0  0  0  0  0  0  0  0  0  0  0  0
  -18.3039   12.0614   24.3341 N   0  0  0  0  0  0  0  0  0  0  0  0
  -20.5491   11.5280   24.5959 O   0  0  0  0  0  0  0  0  0  0  0  0
  -16.0321   12.0692   22.6764 O   0  0  0  0  0  0  0  0  0  0  0  0
  -19.6471   13.2891   25.7422 O   0  0  0  0  0  0  0  0  0  0  0  0
  -16.5189   12.3159   25.3340 H   0  0  0  0  0  0  0  0  0  0  0  0
  -17.4509   13.8157   25.1850 H   0  0  0  0  0  0  0  0  0  0  0  0
  -18.9154   10.3950   23.1805 H   0  0  0  0  0  0  0  0  0  0  0  0
  -17.4084   10.2214   24.0992 H   0  0  0  0  0  0  0  0  0  0  0  0
  -16.9635   13.9216   22.7414 H   0  0  0  0  0  0  0  0  0  0  0  0
  -15.4541   13.7741   23.6521 H   0  0  0  0  0  0  0  0  0  0  0  0
  -16.8681   10.4726   21.7042 H   0  0  0  0  0  0  0  0  0  0  0  0
  -17.7994   11.9724   21.5937 H   0  0  0  0  0  0  0  0  0  0  0  0
  -20.0903   14.5329   28.0637 H   0  0  0  0  0  0  0  0  0  0  0  0
  -20.5056   15.6188   26.7160 H   0  0  0  0  0  0  0  0  0  0  0  0
  -21.7858   14.9520   27.7217 H   0  0  0  0  0  0  0  0  0  0  0  0
  -21.6523   13.7344   25.5452 H   0  0  0  0  0  0  0  0  0  0  0  0
  -21.2344   12.6435   26.8919 H   0  0  0  0  0  0  0  0  0  0  0  0
  1  8  1  0  0  0  0
  1  9  2  0  0  0  0
  1 11  1  0  0  0  0
  2  4  1  0  0  0  0
  2  8  1  0  0  0  0
  3  5  1  0  0  0  0
  3  8  1  0  0  0  0
  4 10  1  0  0  0  0
  5 10  1  0  0  0  0
  6  7  1  0  0  0  0
  7 11  1  0  0  0  0
  2 12  1  0  0  0  0
  2 13  1  0  0  0  0
  3 14  1  0  0  0  0
  3 15  1  0  0  0  0
  4 16  1  0  0  0  0
  4 17  1  0  0  0  0
  5 18  1  0  0  0  0
  5 19  1  0  0  0  0
  6 20  1  0  0  0  0
  6 21  1  0  0  0  0
  6 22  1  0  0  0  0
  7 23  1  0  0  0  0
  7 24  1  0  0  0  0
M  END
> <Chemgauss4>
-6.291309356689453

> <Chemgauss4>
-6.291309

$$$$
