F126
  -OEChem-12061915453D

 23 23  0     0  0  0  0  0  0999 V2000
  -19.8773   11.6737   24.8425 C   0  0  0  0  0  0  0  0  0  0  0  0
  -18.7050   12.2881   24.4519 C   0  0  0  0  0  0  0  0  0  0  0  0
  -18.4450   13.5080   25.0421 C   0  0  0  0  0  0  0  0  0  0  0  0
  -20.3712   13.3941   26.2436 C   0  0  0  0  0  0  0  0  0  0  0  0
  -17.2454   14.2736   24.7328 C   0  0  0  0  0  0  0  0  0  0  0  0
  -22.5030   13.1053   27.5573 C   0  0  0  0  0  0  0  0  0  0  0  0
  -21.7837   15.4033   26.8113 C   0  0  0  0  0  0  0  0  0  0  0  0
  -21.3109   14.0179   27.2586 C   0  0  0  0  0  0  0  0  0  0  0  0
  -20.7369   12.2002   25.7392 N   0  0  0  0  0  0  0  0  0  0  0  0
  -19.2593   14.0927   25.9451 N   0  0  0  0  0  0  0  0  0  0  0  0
  -17.0729   15.4928   25.3799 N   0  0  0  0  0  0  0  0  0  0  0  0
  -16.4117   13.8634   23.9079 O   0  0  0  0  0  0  0  0  0  0  0  0
  -17.6694   11.5495   23.3032 Cl  0  0  0  0  0  0  0  0  0  0  0  0
  -20.1788   10.7120   24.4388 H   0  0  0  0  0  0  0  0  0  0  0  0
  -23.1076   12.9149   26.6639 H   0  0  0  0  0  0  0  0  0  0  0  0
  -23.1564   13.5598   28.3100 H   0  0  0  0  0  0  0  0  0  0  0  0
  -22.1672   12.1372   27.9455 H   0  0  0  0  0  0  0  0  0  0  0  0
  -22.3393   15.3420   25.8689 H   0  0  0  0  0  0  0  0  0  0  0  0
  -20.9282   16.0691   26.6532 H   0  0  0  0  0  0  0  0  0  0  0  0
  -22.4372   15.8733   27.5544 H   0  0  0  0  0  0  0  0  0  0  0  0
  -20.7656   14.1536   28.2021 H   0  0  0  0  0  0  0  0  0  0  0  0
  -17.7763   15.8092   26.0385 H   0  0  0  0  0  0  0  0  0  0  0  0
  -16.2579   16.0724   25.2068 H   0  0  0  0  0  0  0  0  0  0  0  0
  1  2  1  0  0  0  0
  1  9  2  0  0  0  0
  2  3  2  0  0  0  0
  2 13  1  0  0  0  0
  3  5  1  0  0  0  0
  3 10  1  0  0  0  0
  4  8  1  0  0  0  0
  4  9  1  0  0  0  0
  4 10  2  0  0  0  0
  5 11  1  0  0  0  0
  5 12  2  0  0  0  0
  6  8  1  0  0  0  0
  7  8  1  0  0  0  0
  1 14  1  0  0  0  0
  6 15  1  0  0  0  0
  6 16  1  0  0  0  0
  6 17  1  0  0  0  0
  7 18  1  0  0  0  0
  7 19  1  0  0  0  0
  7 20  1  0  0  0  0
  8 21  1  0  0  0  0
 11 22  1  0  0  0  0
 11 23  1  0  0  0  0
M  END
> <Chemgauss4>
-7.1433892250061035

> <Chemgauss4>
-7.143389

$$$$
