F535
  -OEChem-12061918033D

 22 23  0     0  0  0  0  0  0999 V2000
  -19.8838   12.7851   25.7776 C   0  0  0  0  0  0  0  0  0  0  0  0
  -18.3996   12.0259   24.3639 C   0  0  0  0  0  0  0  0  0  0  0  0
  -20.3966   13.7163   26.7232 C   0  0  0  0  0  0  0  0  0  0  0  0
  -19.6717   14.8093   27.0338 C   0  0  0  0  0  0  0  0  0  0  0  0
  -18.3732   15.0618   26.4246 C   0  0  0  0  0  0  0  0  0  0  0  0
  -17.8880   14.1829   25.5316 C   0  0  0  0  0  0  0  0  0  0  0  0
  -16.0565   10.8560   21.7088 C   0  0  0  0  0  0  0  0  0  0  0  0
  -17.1731   11.9137   23.5516 C   0  0  0  0  0  0  0  0  0  0  0  0
  -20.3417   11.6558   25.2806 N   0  0  0  0  0  0  0  0  0  0  0  0
  -19.4033   11.1773   24.3877 N   0  0  0  0  0  0  0  0  0  0  0  0
  -18.6450   13.0608   25.2200 N   0  0  0  0  0  0  0  0  0  0  0  0
  -17.2841   10.9304   22.4957 N   0  0  0  0  0  0  0  0  0  0  0  0
  -21.3627   13.5374   27.1812 H   0  0  0  0  0  0  0  0  0  0  0  0
  -20.0411   15.5346   27.7507 H   0  0  0  0  0  0  0  0  0  0  0  0
  -17.8259   15.9529   26.7065 H   0  0  0  0  0  0  0  0  0  0  0  0
  -16.9296   14.3122   25.0443 H   0  0  0  0  0  0  0  0  0  0  0  0
  -15.8425   11.8409   21.2682 H   0  0  0  0  0  0  0  0  0  0  0  0
  -15.2217   10.5563   22.3594 H   0  0  0  0  0  0  0  0  0  0  0  0
  -16.1802   10.1144   20.9059 H   0  0  0  0  0  0  0  0  0  0  0  0
  -16.9103   12.8716   23.0676 H   0  0  0  0  0  0  0  0  0  0  0  0
  -16.2943   11.6284   24.1570 H   0  0  0  0  0  0  0  0  0  0  0  0
  -17.4723   10.0098   22.8997 H   0  0  0  0  0  0  0  0  0  0  0  0
  1  3  1  0  0  0  0
  1  9  2  0  0  0  0
  1 11  1  0  0  0  0
  2  8  1  0  0  0  0
  2 10  2  0  0  0  0
  2 11  1  0  0  0  0
  3  4  2  0  0  0  0
  4  5  1  0  0  0  0
  5  6  2  0  0  0  0
  6 11  1  0  0  0  0
  7 12  1  0  0  0  0
  8 12  1  0  0  0  0
  9 10  1  0  0  0  0
  3 13  1  0  0  0  0
  4 14  1  0  0  0  0
  5 15  1  0  0  0  0
  6 16  1  0  0  0  0
  7 17  1  0  0  0  0
  7 18  1  0  0  0  0
  7 19  1  0  0  0  0
  8 20  1  0  0  0  0
  8 21  1  0  0  0  0
 12 22  1  0  0  0  0
M  END
> <Chemgauss4>
-6.593009948730469

> <Chemgauss4>
-6.593010

$$$$
