F369
  -OEChem-12061917213D

 32 33  0     0  0  0  0  0  0999 V2000
  -19.5508   12.3424   24.9120 C   0  0  0  0  0  0  0  0  0  0  0  0
  -17.3601   12.3663   24.7234 C   0  0  0  0  0  0  0  0  0  0  0  0
  -18.3714   12.7100   25.5870 C   0  0  0  0  0  0  0  0  0  0  0  0
  -19.2330   13.6536   27.7530 C   0  0  0  0  0  0  0  0  0  0  0  0
  -18.3748   13.0432   31.1089 C   0  0  0  0  0  0  0  0  0  0  0  0
  -19.8431   13.3841   30.9294 C   0  0  0  0  0  0  0  0  0  0  0  0
  -17.7765   13.2259   29.7179 C   0  0  0  0  0  0  0  0  0  0  0  0
  -19.8060   14.5694   29.9751 C   0  0  0  0  0  0  0  0  0  0  0  0
  -18.6576   14.2608   29.0193 C   0  0  0  0  0  0  0  0  0  0  0  0
  -16.0310   12.0699   22.1333 C   0  0  0  0  0  0  0  0  0  0  0  0
  -17.3181   11.3256   22.4444 C   0  0  0  0  0  0  0  0  0  0  0  0
  -19.3124   11.8064   23.7120 N   0  0  0  0  0  0  0  0  0  0  0  0
  -17.9715   11.8347   23.6262 N   0  0  0  0  0  0  0  0  0  0  0  0
  -18.2251   13.3003   26.8647 N   0  0  0  0  0  0  0  0  0  0  0  0
  -20.4448   13.5237   27.6130 O   0  0  0  0  0  0  0  0  0  0  0  0
  -20.5751   12.4410   25.2424 H   0  0  0  0  0  0  0  0  0  0  0  0
  -16.2840   12.4524   24.7935 H   0  0  0  0  0  0  0  0  0  0  0  0
  -17.8864   13.6819   31.8569 H   0  0  0  0  0  0  0  0  0  0  0  0
  -18.2628   11.9985   31.4362 H   0  0  0  0  0  0  0  0  0  0  0  0
  -20.4206   12.5491   30.5344 H   0  0  0  0  0  0  0  0  0  0  0  0
  -20.2772   13.6868   31.8853 H   0  0  0  0  0  0  0  0  0  0  0  0
  -16.7537   13.6212   29.8130 H   0  0  0  0  0  0  0  0  0  0  0  0
  -17.7068   12.2698   29.1807 H   0  0  0  0  0  0  0  0  0  0  0  0
  -20.7608   14.6619   29.4516 H   0  0  0  0  0  0  0  0  0  0  0  0
  -19.6356   15.4990   30.5213 H   0  0  0  0  0  0  0  0  0  0  0  0
  -18.1050   15.1388   28.7366 H   0  0  0  0  0  0  0  0  0  0  0  0
  -16.2194   13.1370   21.9747 H   0  0  0  0  0  0  0  0  0  0  0  0
  -15.5690   11.6665   21.2269 H   0  0  0  0  0  0  0  0  0  0  0  0
  -15.3118   11.9764   22.9539 H   0  0  0  0  0  0  0  0  0  0  0  0
  -17.1195   10.2593   22.6014 H   0  0  0  0  0  0  0  0  0  0  0  0
  -18.0223   11.4055   21.6085 H   0  0  0  0  0  0  0  0  0  0  0  0
  -17.2661   13.4809   27.1543 H   0  0  0  0  0  0  0  0  0  0  0  0
  1  3  1  0  0  0  0
  1 12  2  0  0  0  0
  2  3  2  0  0  0  0
  2 13  1  0  0  0  0
  3 14  1  0  0  0  0
  4  9  1  0  0  0  0
  4 14  1  0  0  0  0
  4 15  2  0  0  0  0
  5  6  1  0  0  0  0
  5  7  1  0  0  0  0
  6  8  1  0  0  0  0
  7  9  1  0  0  0  0
  8  9  1  0  0  0  0
 10 11  1  0  0  0  0
 11 13  1  0  0  0  0
 12 13  1  0  0  0  0
  1 16  1  0  0  0  0
  2 17  1  0  0  0  0
  5 18  1  0  0  0  0
  5 19  1  0  0  0  0
  6 20  1  0  0  0  0
  6 21  1  0  0  0  0
  7 22  1  0  0  0  0
  7 23  1  0  0  0  0
  8 24  1  0  0  0  0
  8 25  1  0  0  0  0
  9 26  1  0  0  0  0
 10 27  1  0  0  0  0
 10 28  1  0  0  0  0
 10 29  1  0  0  0  0
 11 30  1  0  0  0  0
 11 31  1  0  0  0  0
 14 32  1  0  0  0  0
M  END
> <Chemgauss4>
-7.003003120422363

> <Chemgauss4>
-7.003003

$$$$
