F618
  -OEChem-12061918293D

 26 26  0     1  0  0  0  0  0999 V2000
   -8.9462   12.1178   -3.9891 C   0  0  0  0  0  0  0  0  0  0  0  0
   -8.9370   11.8213   -5.3475 C   0  0  0  0  0  0  0  0  0  0  0  0
   -9.5474   13.2997   -3.5873 C   0  0  0  0  0  0  0  0  0  0  0  0
   -9.5210   12.7033   -6.2499 C   0  0  0  0  0  0  0  0  0  0  0  0
  -10.0967   13.8589   -5.7469 C   0  0  0  0  0  0  0  0  0  0  0  0
  -12.7372   14.5997   -7.9282 C   0  0  0  0  0  0  0  0  0  0  0  0
  -10.7143   16.1737   -6.3953 C   0  0  0  0  0  0  0  0  0  0  0  0
  -10.5223   14.8900   -9.0880 C   0  0  0  0  0  0  0  0  0  0  0  0
  -11.2533   14.2569   -7.9065 C   0  0  1  0  0  0  0  0  0  0  0  0
  -10.1250   14.1810   -4.4342 N   0  0  0  0  0  0  0  0  0  0  0  0
  -10.6809   14.7381   -6.6649 N   0  0  3  0  0  0  0  0  0  0  0  0
   -9.1495   14.5173   -9.0474 O   0  0  0  0  0  0  0  0  0  0  0  0
   -9.5184   12.4312   -7.5611 F   0  0  0  0  0  0  0  0  0  0  0  0
   -8.4969   11.4451   -3.2676 H   0  0  0  0  0  0  0  0  0  0  0  0
   -8.4751   10.9047   -5.7016 H   0  0  0  0  0  0  0  0  0  0  0  0
   -9.5805   13.5785   -2.5394 H   0  0  0  0  0  0  0  0  0  0  0  0
  -12.8881   15.6837   -7.8970 H   0  0  0  0  0  0  0  0  0  0  0  0
  -13.2620   14.1572   -7.0740 H   0  0  0  0  0  0  0  0  0  0  0  0
  -13.2114   14.2186   -8.8395 H   0  0  0  0  0  0  0  0  0  0  0  0
  -11.2108   16.6924   -7.2286 H   0  0  0  0  0  0  0  0  0  0  0  0
  -11.2707   16.3590   -5.4646 H   0  0  0  0  0  0  0  0  0  0  0  0
   -9.6864   16.5507   -6.2892 H   0  0  0  0  0  0  0  0  0  0  0  0
  -10.9379   14.5321  -10.0358 H   0  0  0  0  0  0  0  0  0  0  0  0
  -10.5864   15.9834   -9.0653 H   0  0  0  0  0  0  0  0  0  0  0  0
  -11.1277   13.1687   -7.9385 H   0  0  0  0  0  0  0  0  0  0  0  0
   -8.7241   14.9384   -9.8112 H   0  0  0  0  0  0  0  0  0  0  0  0
  1  2  2  0  0  0  0
  1  3  1  0  0  0  0
  2  4  1  0  0  0  0
  3 10  2  0  0  0  0
  4  5  2  0  0  0  0
  4 13  1  0  0  0  0
  5 10  1  0  0  0  0
  5 11  1  0  0  0  0
  6  9  1  0  0  0  0
  7 11  1  0  0  0  0
  8  9  1  0  0  0  0
  8 12  1  0  0  0  0
  9 11  1  0  0  0  0
  1 14  1  0  0  0  0
  2 15  1  0  0  0  0
  3 16  1  0  0  0  0
  6 17  1  0  0  0  0
  6 18  1  0  0  0  0
  6 19  1  0  0  0  0
  7 20  1  0  0  0  0
  7 21  1  0  0  0  0
  7 22  1  0  0  0  0
  8 23  1  0  0  0  0
  8 24  1  0  0  0  0
  9 25  1  0  0  0  0
 12 26  1  0  0  0  0
M  END
> <Chemgauss4>
-7.554023742675781

> <Chemgauss4>
-7.554024

$$$$
