F367
  -OEChem-12061917103D

 31 32  0     0  0  0  0  0  0999 V2000
  -15.8598   12.7917   22.6229 C   0  0  0  0  0  0  0  0  0  0  0  0
  -16.4617   13.4909   23.6632 C   0  0  0  0  0  0  0  0  0  0  0  0
  -16.4432   11.6019   22.2182 C   0  0  0  0  0  0  0  0  0  0  0  0
  -18.1174   11.7876   23.7805 C   0  0  0  0  0  0  0  0  0  0  0  0
  -17.6942   17.9276   27.8040 C   0  0  0  0  0  0  0  0  0  0  0  0
  -16.3067   16.2597   27.4465 C   0  0  0  0  0  0  0  0  0  0  0  0
  -17.6124   12.9860   24.2586 C   0  0  0  0  0  0  0  0  0  0  0  0
  -17.5938   16.6648   27.1900 C   0  0  0  0  0  0  0  0  0  0  0  0
  -18.2623   13.6944   25.3472 C   0  0  0  0  0  0  0  0  0  0  0  0
  -13.4805   18.1876   27.8419 C   0  0  0  0  0  0  0  0  0  0  0  0
  -18.6543   15.9239   26.4280 C   0  0  0  0  0  0  0  0  0  0  0  0
  -14.3851   17.2966   28.6757 C   0  0  0  0  0  0  0  0  0  0  0  0
  -17.5604   11.0799   22.7722 N   0  0  0  0  0  0  0  0  0  0  0  0
  -16.5613   18.3001   28.4055 N   0  0  0  0  0  0  0  0  0  0  0  0
  -15.7368   17.2651   28.1707 N   0  0  0  0  0  0  0  0  0  0  0  0
  -18.0912   15.0836   25.3957 N   0  0  0  0  0  0  0  0  0  0  0  0
  -18.9212   13.0743   26.2021 O   0  0  0  0  0  0  0  0  0  0  0  0
  -14.9627   13.1663   22.1435 H   0  0  0  0  0  0  0  0  0  0  0  0
  -16.0259   14.4268   24.0024 H   0  0  0  0  0  0  0  0  0  0  0  0
  -16.0120   11.0187   21.4113 H   0  0  0  0  0  0  0  0  0  0  0  0
  -19.0132   11.3440   24.2046 H   0  0  0  0  0  0  0  0  0  0  0  0
  -18.5449   18.5934   27.8404 H   0  0  0  0  0  0  0  0  0  0  0  0
  -15.7618   15.3632   27.1831 H   0  0  0  0  0  0  0  0  0  0  0  0
  -13.4384   17.8464   26.8021 H   0  0  0  0  0  0  0  0  0  0  0  0
  -12.4632   18.1790   28.2453 H   0  0  0  0  0  0  0  0  0  0  0  0
  -13.8382   19.2226   27.8392 H   0  0  0  0  0  0  0  0  0  0  0  0
  -19.2386   15.2864   27.1004 H   0  0  0  0  0  0  0  0  0  0  0  0
  -19.3527   16.6189   25.9501 H   0  0  0  0  0  0  0  0  0  0  0  0
  -14.4208   17.6458   29.7139 H   0  0  0  0  0  0  0  0  0  0  0  0
  -14.0067   16.2683   28.6913 H   0  0  0  0  0  0  0  0  0  0  0  0
  -17.4925   15.5328   24.7105 H   0  0  0  0  0  0  0  0  0  0  0  0
  1  2  2  0  0  0  0
  1  3  1  0  0  0  0
  2  7  1  0  0  0  0
  3 13  2  0  0  0  0
  4  7  2  0  0  0  0
  4 13  1  0  0  0  0
  5  8  1  0  0  0  0
  5 14  2  0  0  0  0
  6  8  2  0  0  0  0
  6 15  1  0  0  0  0
  7  9  1  0  0  0  0
  8 11  1  0  0  0  0
  9 16  1  0  0  0  0
  9 17  2  0  0  0  0
 10 12  1  0  0  0  0
 11 16  1  0  0  0  0
 12 15  1  0  0  0  0
 14 15  1  0  0  0  0
  1 18  1  0  0  0  0
  2 19  1  0  0  0  0
  3 20  1  0  0  0  0
  4 21  1  0  0  0  0
  5 22  1  0  0  0  0
  6 23  1  0  0  0  0
 10 24  1  0  0  0  0
 10 25  1  0  0  0  0
 10 26  1  0  0  0  0
 11 27  1  0  0  0  0
 11 28  1  0  0  0  0
 12 29  1  0  0  0  0
 12 30  1  0  0  0  0
 16 31  1  0  0  0  0
M  END
> <Chemgauss4>
-7.9952592849731445

> <Chemgauss4>
-7.995259

$$$$
