F763
  -OEChem-12061918513D

 19 19  0     0  0  0  0  0  0999 V2000
  -18.8047   15.0768   25.8350 C   0  0  0  0  0  0  0  0  0  0  0  0
  -20.5760   13.4477   26.0495 C   0  0  0  0  0  0  0  0  0  0  0  0
  -18.0217   14.1862   25.2159 C   0  0  0  0  0  0  0  0  0  0  0  0
  -20.1271   14.6924   26.2659 C   0  0  0  0  0  0  0  0  0  0  0  0
  -19.7117   12.4420   25.3582 C   0  0  0  0  0  0  0  0  0  0  0  0
  -17.5182   11.9948   24.2902 C   0  0  0  0  0  0  0  0  0  0  0  0
  -17.9374   11.8367   22.8400 C   0  0  0  0  0  0  0  0  0  0  0  0
  -18.4439   12.8915   24.9719 N   0  0  0  0  0  0  0  0  0  0  0  0
  -20.1536   11.3089   25.1742 O   0  0  0  0  0  0  0  0  0  0  0  0
  -17.0118   10.9899   22.1705 O   0  0  0  0  0  0  0  0  0  0  0  0
  -21.1705   15.9806   27.1243 Br  0  0  0  0  0  0  0  0  0  0  0  0
  -18.4479   16.0851   26.0142 H   0  0  0  0  0  0  0  0  0  0  0  0
  -21.5633   13.1220   26.3594 H   0  0  0  0  0  0  0  0  0  0  0  0
  -17.0234   14.4473   24.8818 H   0  0  0  0  0  0  0  0  0  0  0  0
  -17.5253   11.0328   24.8125 H   0  0  0  0  0  0  0  0  0  0  0  0
  -16.5155   12.4284   24.3517 H   0  0  0  0  0  0  0  0  0  0  0  0
  -17.9285   12.8097   22.3392 H   0  0  0  0  0  0  0  0  0  0  0  0
  -18.9382   11.4008   22.7555 H   0  0  0  0  0  0  0  0  0  0  0  0
  -17.3151   10.9157   21.2515 H   0  0  0  0  0  0  0  0  0  0  0  0
  1  3  2  0  0  0  0
  1  4  1  0  0  0  0
  2  4  2  0  0  0  0
  2  5  1  0  0  0  0
  3  8  1  0  0  0  0
  4 11  1  0  0  0  0
  5  8  1  0  0  0  0
  5  9  2  0  0  0  0
  6  7  1  0  0  0  0
  6  8  1  0  0  0  0
  7 10  1  0  0  0  0
  1 12  1  0  0  0  0
  2 13  1  0  0  0  0
  3 14  1  0  0  0  0
  6 15  1  0  0  0  0
  6 16  1  0  0  0  0
  7 17  1  0  0  0  0
  7 18  1  0  0  0  0
 10 19  1  0  0  0  0
M  END
> <Chemgauss4>
-7.031176567077637

> <Chemgauss4>
-7.031177

$$$$
