F5
  -OEChem-12061915293D

 22 22  0     0  0  0  0  0  0999 V2000
  -17.9474   12.7028   27.3144 C   0  0  0  0  0  0  0  0  0  0  0  0
  -18.0425   13.0331   28.6663 C   0  0  0  0  0  0  0  0  0  0  0  0
  -20.1122   14.2025   28.2351 C   0  0  0  0  0  0  0  0  0  0  0  0
  -18.9347   13.1224   26.4229 C   0  0  0  0  0  0  0  0  0  0  0  0
  -20.0171   13.8722   26.8832 C   0  0  0  0  0  0  0  0  0  0  0  0
  -19.1248   13.7829   29.1266 C   0  0  0  0  0  0  0  0  0  0  0  0
  -19.2266   11.3288   24.7451 C   0  0  0  0  0  0  0  0  0  0  0  0
  -20.8031   15.5586   25.4019 C   0  0  0  0  0  0  0  0  0  0  0  0
  -18.8165   12.7602   24.9793 C   0  0  0  0  0  0  0  0  0  0  0  0
  -20.3137   10.8674   25.0689 O   0  0  0  0  0  0  0  0  0  0  0  0
  -18.2488   10.5900   24.1632 O   0  0  0  0  0  0  0  0  0  0  0  0
  -20.9901   14.2898   26.0256 O   0  0  0  0  0  0  0  0  0  0  0  0
  -19.2536   14.2287   30.9590 Br  0  0  0  0  0  0  0  0  0  0  0  0
  -17.0997   12.1191   26.9656 H   0  0  0  0  0  0  0  0  0  0  0  0
  -17.2642   12.6999   29.3480 H   0  0  0  0  0  0  0  0  0  0  0  0
  -20.9597   14.7875   28.5846 H   0  0  0  0  0  0  0  0  0  0  0  0
  -21.6497   15.7704   24.7443 H   0  0  0  0  0  0  0  0  0  0  0  0
  -19.8742   15.5493   24.8262 H   0  0  0  0  0  0  0  0  0  0  0  0
  -20.7430   16.3290   26.1744 H   0  0  0  0  0  0  0  0  0  0  0  0
  -17.8004   12.9216   24.6002 H   0  0  0  0  0  0  0  0  0  0  0  0
  -19.4579   13.3986   24.3589 H   0  0  0  0  0  0  0  0  0  0  0  0
  -18.4688    9.6457   24.0143 H   0  0  0  0  0  0  0  0  0  0  0  0
  1  2  2  0  0  0  0
  1  4  1  0  0  0  0
  2  6  1  0  0  0  0
  3  5  1  0  0  0  0
  3  6  2  0  0  0  0
  4  5  2  0  0  0  0
  4  9  1  0  0  0  0
  5 12  1  0  0  0  0
  6 13  1  0  0  0  0
  7  9  1  0  0  0  0
  7 10  2  0  0  0  0
  7 11  1  0  0  0  0
  8 12  1  0  0  0  0
  1 14  1  0  0  0  0
  2 15  1  0  0  0  0
  3 16  1  0  0  0  0
  8 17  1  0  0  0  0
  8 18  1  0  0  0  0
  8 19  1  0  0  0  0
  9 20  1  0  0  0  0
  9 21  1  0  0  0  0
 11 22  1  0  0  0  0
M  END
> <Chemgauss4>
-6.91508150100708

> <Chemgauss4>
-6.915082

$$$$
