F687
  -OEChem-12061918383D

 24 25  0     0  0  0  0  0  0999 V2000
  -20.9754   15.2100   26.2744 C   0  0  0  0  0  0  0  0  0  0  0  0
  -21.2645   14.1229   27.0992 C   0  0  0  0  0  0  0  0  0  0  0  0
  -19.8703   15.1661   25.4244 C   0  0  0  0  0  0  0  0  0  0  0  0
  -20.4485   12.9920   27.0741 C   0  0  0  0  0  0  0  0  0  0  0  0
  -15.5127   14.3307   22.9514 C   0  0  0  0  0  0  0  0  0  0  0  0
  -14.4474   14.0038   22.1484 C   0  0  0  0  0  0  0  0  0  0  0  0
  -19.0543   14.0351   25.3993 C   0  0  0  0  0  0  0  0  0  0  0  0
  -19.3434   12.9480   26.2241 C   0  0  0  0  0  0  0  0  0  0  0  0
  -15.9264   13.1037   23.5039 C   0  0  0  0  0  0  0  0  0  0  0  0
  -17.0586   12.8676   24.4612 C   0  0  0  0  0  0  0  0  0  0  0  0
  -15.1845   12.0743   23.0871 N   0  0  0  0  0  0  0  0  0  0  0  0
  -14.2939   12.6536   22.2640 N   0  0  0  0  0  0  0  0  0  0  0  0
  -17.9374   13.9932   24.5388 N   0  0  0  0  0  0  0  0  0  0  0  0
  -18.5656   11.8562   26.2081 F   0  0  0  0  0  0  0  0  0  0  0  0
  -21.6109   16.0904   26.2943 H   0  0  0  0  0  0  0  0  0  0  0  0
  -22.1252   14.1576   27.7608 H   0  0  0  0  0  0  0  0  0  0  0  0
  -19.6547   16.0186   24.7851 H   0  0  0  0  0  0  0  0  0  0  0  0
  -20.6734   12.1456   27.7162 H   0  0  0  0  0  0  0  0  0  0  0  0
  -15.9263   15.3159   23.1102 H   0  0  0  0  0  0  0  0  0  0  0  0
  -13.7999   14.5972   21.5191 H   0  0  0  0  0  0  0  0  0  0  0  0
  -17.6501   11.9986   24.1529 H   0  0  0  0  0  0  0  0  0  0  0  0
  -16.6844   12.6649   25.4702 H   0  0  0  0  0  0  0  0  0  0  0  0
  -13.6050   12.0654   21.8120 H   0  0  0  0  0  0  0  0  0  0  0  0
  -17.7733   14.8008   23.9679 H   0  0  0  0  0  0  0  0  0  0  0  0
  1  2  1  0  0  0  0
  1  3  2  0  0  0  0
  2  4  2  0  0  0  0
  3  7  1  0  0  0  0
  4  8  1  0  0  0  0
  5  6  2  0  0  0  0
  5  9  1  0  0  0  0
  6 12  1  0  0  0  0
  7  8  2  0  0  0  0
  7 13  1  0  0  0  0
  8 14  1  0  0  0  0
  9 10  1  0  0  0  0
  9 11  2  0  0  0  0
 10 13  1  0  0  0  0
 11 12  1  0  0  0  0
  1 15  1  0  0  0  0
  2 16  1  0  0  0  0
  3 17  1  0  0  0  0
  4 18  1  0  0  0  0
  5 19  1  0  0  0  0
  6 20  1  0  0  0  0
 10 21  1  0  0  0  0
 10 22  1  0  0  0  0
 12 23  1  0  0  0  0
 13 24  1  0  0  0  0
M  END
> <Chemgauss4>
-8.403722763061523

> <Chemgauss4>
-8.403723

$$$$
