F374
  -OEChem-12061917223D

 18 18  0     0  0  0  0  0  0999 V2000
  -21.0894   16.7215    0.4905 C   0  0  0  0  0  0  0  0  0  0  0  0
  -19.8856   16.6989   -0.1678 C   0  0  0  0  0  0  0  0  0  0  0  0
  -18.7534   17.6450    0.0065 C   0  0  0  0  0  0  0  0  0  0  0  0
  -15.8373   17.5173    2.3444 C   0  0  0  0  0  0  0  0  0  0  0  0
  -16.6750   18.1275    1.2727 C   0  0  0  0  0  0  0  0  0  0  0  0
  -19.8583   15.6458   -1.0395 N   0  0  0  0  0  0  0  0  0  0  0  0
  -21.0191   15.0067   -0.9440 N   0  0  0  0  0  0  0  0  0  0  0  0
  -21.7559   15.6534   -0.0263 N   0  0  0  0  0  0  0  0  0  0  0  0
  -17.8123   17.3028    0.9710 N   0  0  0  0  0  0  0  0  0  0  0  0
  -18.7141   18.6657   -0.6754 O   0  0  0  0  0  0  0  0  0  0  0  0
  -21.5162   17.3676    1.2439 H   0  0  0  0  0  0  0  0  0  0  0  0
  -15.4821   16.5296    2.0153 H   0  0  0  0  0  0  0  0  0  0  0  0
  -14.9742   18.1675    2.5498 H   0  0  0  0  0  0  0  0  0  0  0  0
  -16.4375   17.4047    3.2593 H   0  0  0  0  0  0  0  0  0  0  0  0
  -17.0261   19.1141    1.6093 H   0  0  0  0  0  0  0  0  0  0  0  0
  -16.0659   18.2453    0.3643 H   0  0  0  0  0  0  0  0  0  0  0  0
  -22.6846   15.3123    0.1904 H   0  0  0  0  0  0  0  0  0  0  0  0
  -17.9515   16.4684    1.5384 H   0  0  0  0  0  0  0  0  0  0  0  0
  1  2  2  0  0  0  0
  1  8  1  0  0  0  0
  2  3  1  0  0  0  0
  2  6  1  0  0  0  0
  3  9  1  0  0  0  0
  3 10  2  0  0  0  0
  4  5  1  0  0  0  0
  5  9  1  0  0  0  0
  6  7  2  0  0  0  0
  7  8  1  0  0  0  0
  1 11  1  0  0  0  0
  4 12  1  0  0  0  0
  4 13  1  0  0  0  0
  4 14  1  0  0  0  0
  5 15  1  0  0  0  0
  5 16  1  0  0  0  0
  8 17  1  0  0  0  0
  9 18  1  0  0  0  0
M  END
> <Chemgauss4>
-7.600389003753662

> <Chemgauss4>
-7.600389

$$$$
