F760
  -OEChem-12061918503D

 17 18  0     0  0  0  0  0  0999 V2000
  -18.1448   11.4193   24.1841 C   0  0  0  0  0  0  0  0  0  0  0  0
  -19.1801   11.8755   25.0064 C   0  0  0  0  0  0  0  0  0  0  0  0
  -18.2694   14.1364   25.0008 C   0  0  0  0  0  0  0  0  0  0  0  0
  -17.1875   12.3306   23.7828 C   0  0  0  0  0  0  0  0  0  0  0  0
  -17.2592   13.6603   24.1900 C   0  0  0  0  0  0  0  0  0  0  0  0
  -19.2415   13.2223   25.4111 C   0  0  0  0  0  0  0  0  0  0  0  0
  -15.3716   13.5423   22.8802 C   0  0  0  0  0  0  0  0  0  0  0  0
  -15.9840   12.1374   22.9162 C   0  0  0  0  0  0  0  0  0  0  0  0
  -16.1892   14.3704   23.6573 N   0  0  0  0  0  0  0  0  0  0  0  0
  -14.3566   13.8553   22.2772 O   0  0  0  0  0  0  0  0  0  0  0  0
  -20.6584   13.7985   26.5239 Br  0  0  0  0  0  0  0  0  0  0  0  0
  -18.1004   10.3813   23.8740 H   0  0  0  0  0  0  0  0  0  0  0  0
  -19.9409   11.1684   25.3297 H   0  0  0  0  0  0  0  0  0  0  0  0
  -18.2999   15.1780   25.3021 H   0  0  0  0  0  0  0  0  0  0  0  0
  -15.2735   11.4404   23.3677 H   0  0  0  0  0  0  0  0  0  0  0  0
  -16.2636   11.8341   21.9042 H   0  0  0  0  0  0  0  0  0  0  0  0
  -16.0333   15.3583   23.8184 H   0  0  0  0  0  0  0  0  0  0  0  0
  1  2  2  0  0  0  0
  1  4  1  0  0  0  0
  2  6  1  0  0  0  0
  3  5  1  0  0  0  0
  3  6  2  0  0  0  0
  4  5  2  0  0  0  0
  4  8  1  0  0  0  0
  5  9  1  0  0  0  0
  6 11  1  0  0  0  0
  7  8  1  0  0  0  0
  7  9  1  0  0  0  0
  7 10  2  0  0  0  0
  1 12  1  0  0  0  0
  2 13  1  0  0  0  0
  3 14  1  0  0  0  0
  8 15  1  0  0  0  0
  8 16  1  0  0  0  0
  9 17  1  0  0  0  0
M  END
> <Chemgauss4>
-7.2947282791137695

> <Chemgauss4>
-7.294728

$$$$
