F389
  -OEChem-12061917233D

 18 18  0     0  0  0  0  0  0999 V2000
  -16.7723   12.3160   23.7624 C   0  0  0  0  0  0  0  0  0  0  0  0
  -18.3935   11.2077   22.7732 C   0  0  0  0  0  0  0  0  0  0  0  0
  -18.1304   11.9671   23.8871 C   0  0  0  0  0  0  0  0  0  0  0  0
  -19.0658   12.3006   24.9168 C   0  0  0  0  0  0  0  0  0  0  0  0
  -18.0076   15.4227   25.9155 C   0  0  0  0  0  0  0  0  0  0  0  0
  -19.0715   14.3699   26.1425 C   0  0  0  0  0  0  0  0  0  0  0  0
  -16.2117   11.8190   22.6567 N   0  0  0  0  0  0  0  0  0  0  0  0
  -17.2225   11.1500   22.0764 N   0  0  0  0  0  0  0  0  0  0  0  0
  -20.2655   11.9445   24.9483 O   0  0  0  0  0  0  0  0  0  0  0  0
  -18.5051   13.0763   25.9070 O   0  0  0  0  0  0  0  0  0  0  0  0
  -16.1644   12.9114   24.4290 H   0  0  0  0  0  0  0  0  0  0  0  0
  -19.2869   10.7135   22.4179 H   0  0  0  0  0  0  0  0  0  0  0  0
  -17.1659   15.2806   26.5990 H   0  0  0  0  0  0  0  0  0  0  0  0
  -17.6377   15.3819   24.8858 H   0  0  0  0  0  0  0  0  0  0  0  0
  -18.4195   16.4261   26.0662 H   0  0  0  0  0  0  0  0  0  0  0  0
  -19.9103   14.5177   25.4559 H   0  0  0  0  0  0  0  0  0  0  0  0
  -19.4394   14.4115   27.1721 H   0  0  0  0  0  0  0  0  0  0  0  0
  -17.0434   10.6749   21.2006 H   0  0  0  0  0  0  0  0  0  0  0  0
  1  3  1  0  0  0  0
  1  7  2  0  0  0  0
  2  3  2  0  0  0  0
  2  8  1  0  0  0  0
  3  4  1  0  0  0  0
  4  9  2  0  0  0  0
  4 10  1  0  0  0  0
  5  6  1  0  0  0  0
  6 10  1  0  0  0  0
  7  8  1  0  0  0  0
  1 11  1  0  0  0  0
  2 12  1  0  0  0  0
  5 13  1  0  0  0  0
  5 14  1  0  0  0  0
  5 15  1  0  0  0  0
  6 16  1  0  0  0  0
  6 17  1  0  0  0  0
  8 18  1  0  0  0  0
M  END
> <Chemgauss4>
-7.299983024597168

> <Chemgauss4>
-7.299983

$$$$
