F229
  -OEChem-12061915583D

 27 28  0     0  0  0  0  0  0999 V2000
  -17.6057   12.5657   24.5489 C   0  0  0  0  0  0  0  0  0  0  0  0
  -18.4053   12.0447   25.5661 C   0  0  0  0  0  0  0  0  0  0  0  0
  -17.2466   13.9135   24.5651 C   0  0  0  0  0  0  0  0  0  0  0  0
  -18.8459   12.8714   26.5996 C   0  0  0  0  0  0  0  0  0  0  0  0
  -17.9861   19.4747   25.9374 C   0  0  0  0  0  0  0  0  0  0  0  0
  -17.2516   18.4051   26.3877 C   0  0  0  0  0  0  0  0  0  0  0  0
  -17.6872   14.7402   25.5986 C   0  0  0  0  0  0  0  0  0  0  0  0
  -18.4868   14.2192   26.6158 C   0  0  0  0  0  0  0  0  0  0  0  0
  -15.9516   18.9177   26.5583 C   0  0  0  0  0  0  0  0  0  0  0  0
  -14.7523   18.2011   27.0268 C   0  0  0  0  0  0  0  0  0  0  0  0
  -17.7379   17.0072   26.6397 C   0  0  0  0  0  0  0  0  0  0  0  0
  -15.8622   20.2123   26.2420 N   0  0  0  0  0  0  0  0  0  0  0  0
  -17.1153   20.5221   25.8680 N   0  0  0  0  0  0  0  0  0  0  0  0
  -17.3227   16.1028   25.6126 N   0  0  0  0  0  0  0  0  0  0  0  0
  -18.9160   15.0049   27.6137 F   0  0  0  0  0  0  0  0  0  0  0  0
  -17.2629   11.9218   23.7443 H   0  0  0  0  0  0  0  0  0  0  0  0
  -18.6844   10.9952   25.5531 H   0  0  0  0  0  0  0  0  0  0  0  0
  -16.6224   14.3090   23.7677 H   0  0  0  0  0  0  0  0  0  0  0  0
  -19.4684   12.4660   27.3915 H   0  0  0  0  0  0  0  0  0  0  0  0
  -19.0266   19.5850   25.6668 H   0  0  0  0  0  0  0  0  0  0  0  0
  -14.1996   17.7529   26.1838 H   0  0  0  0  0  0  0  0  0  0  0  0
  -14.0547   18.8655   27.5668 H   0  0  0  0  0  0  0  0  0  0  0  0
  -15.0020   17.3880   27.7313 H   0  0  0  0  0  0  0  0  0  0  0  0
  -17.3551   16.6315   27.5949 H   0  0  0  0  0  0  0  0  0  0  0  0
  -18.8312   16.9750   26.6922 H   0  0  0  0  0  0  0  0  0  0  0  0
  -17.3075   21.4729   25.5781 H   0  0  0  0  0  0  0  0  0  0  0  0
  -16.7481   16.4271   24.8579 H   0  0  0  0  0  0  0  0  0  0  0  0
  1  2  1  0  0  0  0
  1  3  2  0  0  0  0
  2  4  2  0  0  0  0
  3  7  1  0  0  0  0
  4  8  1  0  0  0  0
  5  6  2  0  0  0  0
  5 13  1  0  0  0  0
  6  9  1  0  0  0  0
  6 11  1  0  0  0  0
  7  8  2  0  0  0  0
  7 14  1  0  0  0  0
  8 15  1  0  0  0  0
  9 10  1  0  0  0  0
  9 12  2  0  0  0  0
 11 14  1  0  0  0  0
 12 13  1  0  0  0  0
  1 16  1  0  0  0  0
  2 17  1  0  0  0  0
  3 18  1  0  0  0  0
  4 19  1  0  0  0  0
  5 20  1  0  0  0  0
 10 21  1  0  0  0  0
 10 22  1  0  0  0  0
 10 23  1  0  0  0  0
 11 24  1  0  0  0  0
 11 25  1  0  0  0  0
 13 26  1  0  0  0  0
 14 27  1  0  0  0  0
M  END
> <Chemgauss4>
-8.812828063964844

> <Chemgauss4>
-8.812828

$$$$
