F666
  -OEChem-12061918353D

 35 37  0     0  0  0  0  0  0999 V2000
  -16.5037   13.5017   23.7703 C   0  0  0  0  0  0  0  0  0  0  0  0
  -18.2021   11.8216   23.4098 C   0  0  0  0  0  0  0  0  0  0  0  0
  -15.6961   12.8912   22.8108 C   0  0  0  0  0  0  0  0  0  0  0  0
  -17.3944   11.2111   22.4502 C   0  0  0  0  0  0  0  0  0  0  0  0
  -17.7567   12.9669   24.0698 C   0  0  0  0  0  0  0  0  0  0  0  0
  -16.1414   11.7459   22.1508 C   0  0  0  0  0  0  0  0  0  0  0  0
  -18.4343   14.9468   28.9645 C   0  0  0  0  0  0  0  0  0  0  0  0
  -17.9570   13.0994   30.6958 C   0  0  0  0  0  0  0  0  0  0  0  0
  -18.6806   14.1971   31.4160 C   0  0  0  0  0  0  0  0  0  0  0  0
  -18.5178   15.0171   25.2861 C   0  0  0  0  0  0  0  0  0  0  0  0
  -19.1515   12.7914   26.1178 C   0  0  0  0  0  0  0  0  0  0  0  0
  -17.7010   15.2818   26.5509 C   0  0  0  0  0  0  0  0  0  0  0  0
  -18.3410   13.0366   27.3935 C   0  0  0  0  0  0  0  0  0  0  0  0
  -18.9462   13.9467   29.9705 C   0  0  0  0  0  0  0  0  0  0  0  0
  -18.5617   13.5753   25.0262 N   0  0  0  0  0  0  0  0  0  0  0  0
  -18.2023   14.4713   27.6738 N   0  0  0  0  0  0  0  0  0  0  0  0
  -18.2441   16.1136   29.3170 O   0  0  0  0  0  0  0  0  0  0  0  0
  -15.3659   11.1596   21.2293 F   0  0  0  0  0  0  0  0  0  0  0  0
  -16.1469   14.3939   24.2784 H   0  0  0  0  0  0  0  0  0  0  0  0
  -19.1766   11.3962   23.6355 H   0  0  0  0  0  0  0  0  0  0  0  0
  -14.7206   13.3074   22.5772 H   0  0  0  0  0  0  0  0  0  0  0  0
  -17.7406   10.3193   21.9362 H   0  0  0  0  0  0  0  0  0  0  0  0
  -16.8986   13.2328   30.5075 H   0  0  0  0  0  0  0  0  0  0  0  0
  -18.2485   12.0781   30.9088 H   0  0  0  0  0  0  0  0  0  0  0  0
  -19.4590   13.9147   32.1144 H   0  0  0  0  0  0  0  0  0  0  0  0
  -18.1070   15.0666   31.7132 H   0  0  0  0  0  0  0  0  0  0  0  0
  -19.5310   15.4049   25.4088 H   0  0  0  0  0  0  0  0  0  0  0  0
  -18.0521   15.5336   24.4453 H   0  0  0  0  0  0  0  0  0  0  0  0
  -19.1315   11.7363   25.8536 H   0  0  0  0  0  0  0  0  0  0  0  0
  -20.1857   13.0806   26.2948 H   0  0  0  0  0  0  0  0  0  0  0  0
  -16.6590   15.0113   26.3983 H   0  0  0  0  0  0  0  0  0  0  0  0
  -17.7555   16.3342   26.8088 H   0  0  0  0  0  0  0  0  0  0  0  0
  -18.8324   12.5820   28.2582 H   0  0  0  0  0  0  0  0  0  0  0  0
  -17.3519   12.5833   27.3004 H   0  0  0  0  0  0  0  0  0  0  0  0
  -19.8866   13.5110   29.6916 H   0  0  0  0  0  0  0  0  0  0  0  0
  1  3  2  0  0  0  0
  1  5  1  0  0  0  0
  2  4  1  0  0  0  0
  2  5  2  0  0  0  0
  3  6  1  0  0  0  0
  4  6  2  0  0  0  0
  5 15  1  0  0  0  0
  6 18  1  0  0  0  0
  7 14  1  0  0  0  0
  7 16  1  0  0  0  0
  7 17  2  0  0  0  0
  8  9  1  0  0  0  0
  8 14  1  0  0  0  0
  9 14  1  0  0  0  0
 10 12  1  0  0  0  0
 10 15  1  0  0  0  0
 11 13  1  0  0  0  0
 11 15  1  0  0  0  0
 12 16  1  0  0  0  0
 13 16  1  0  0  0  0
  1 19  1  0  0  0  0
  2 20  1  0  0  0  0
  3 21  1  0  0  0  0
  4 22  1  0  0  0  0
  8 23  1  0  0  0  0
  8 24  1  0  0  0  0
  9 25  1  0  0  0  0
  9 26  1  0  0  0  0
 10 27  1  0  0  0  0
 10 28  1  0  0  0  0
 11 29  1  0  0  0  0
 11 30  1  0  0  0  0
 12 31  1  0  0  0  0
 12 32  1  0  0  0  0
 13 33  1  0  0  0  0
 13 34  1  0  0  0  0
 14 35  1  0  0  0  0
M  END
> <Chemgauss4>
-8.237532615661621

> <Chemgauss4>
-8.237533

$$$$
