F217
  -OEChem-12061915533D

 28 29  0     0  0  0  0  0  0999 V2000
  -20.7351   15.6892   26.5118 C   0  0  0  0  0  0  0  0  0  0  0  0
  -19.4085   16.0276   26.2348 C   0  0  0  0  0  0  0  0  0  0  0  0
  -21.2082   14.3889   26.2950 C   0  0  0  0  0  0  0  0  0  0  0  0
  -18.5080   15.0824   25.7326 C   0  0  0  0  0  0  0  0  0  0  0  0
  -20.3172   13.4266   25.7907 C   0  0  0  0  0  0  0  0  0  0  0  0
  -19.0012   13.7939   25.5245 C   0  0  0  0  0  0  0  0  0  0  0  0
  -19.3647   11.6627   25.0552 C   0  0  0  0  0  0  0  0  0  0  0  0
  -15.3575   12.9283   22.8028 C   0  0  0  0  0  0  0  0  0  0  0  0
  -19.0715   10.2872   24.6027 C   0  0  0  0  0  0  0  0  0  0  0  0
  -16.7966   13.0888   23.2493 C   0  0  0  0  0  0  0  0  0  0  0  0
  -17.0383   12.5066   24.6381 C   0  0  0  0  0  0  0  0  0  0  0  0
  -20.5243   12.0991   25.4932 N   0  0  0  0  0  0  0  0  0  0  0  0
  -18.4152   12.6463   25.0554 N   0  0  0  0  0  0  0  0  0  0  0  0
  -15.1480   11.7459   22.1260 N   0  0  0  0  0  0  0  0  0  0  0  0
  -14.4766   13.7553   23.0196 O   0  0  0  0  0  0  0  0  0  0  0  0
  -21.4109   16.4454   26.9027 H   0  0  0  0  0  0  0  0  0  0  0  0
  -19.0686   17.0451   26.4124 H   0  0  0  0  0  0  0  0  0  0  0  0
  -22.2405   14.1362   26.5142 H   0  0  0  0  0  0  0  0  0  0  0  0
  -17.4782   15.3457   25.5187 H   0  0  0  0  0  0  0  0  0  0  0  0
  -19.2576   10.1777   23.5222 H   0  0  0  0  0  0  0  0  0  0  0  0
  -18.0225   10.0050   24.7934 H   0  0  0  0  0  0  0  0  0  0  0  0
  -19.6895    9.5397   25.1279 H   0  0  0  0  0  0  0  0  0  0  0  0
  -17.0443   14.1573   23.2374 H   0  0  0  0  0  0  0  0  0  0  0  0
  -17.4424   12.5946   22.5130 H   0  0  0  0  0  0  0  0  0  0  0  0
  -16.4089   13.0010   25.3882 H   0  0  0  0  0  0  0  0  0  0  0  0
  -16.7857   11.4396   24.6686 H   0  0  0  0  0  0  0  0  0  0  0  0
  -15.9078   11.0915   21.9715 H   0  0  0  0  0  0  0  0  0  0  0  0
  -14.2384   11.4843   21.7592 H   0  0  0  0  0  0  0  0  0  0  0  0
  1  2  1  0  0  0  0
  1  3  2  0  0  0  0
  2  4  2  0  0  0  0
  3  5  1  0  0  0  0
  4  6  1  0  0  0  0
  5  6  2  0  0  0  0
  5 12  1  0  0  0  0
  6 13  1  0  0  0  0
  7  9  1  0  0  0  0
  7 12  2  0  0  0  0
  7 13  1  0  0  0  0
  8 10  1  0  0  0  0
  8 14  1  0  0  0  0
  8 15  2  0  0  0  0
 10 11  1  0  0  0  0
 11 13  1  0  0  0  0
  1 16  1  0  0  0  0
  2 17  1  0  0  0  0
  3 18  1  0  0  0  0
  4 19  1  0  0  0  0
  9 20  1  0  0  0  0
  9 21  1  0  0  0  0
  9 22  1  0  0  0  0
 10 23  1  0  0  0  0
 10 24  1  0  0  0  0
 11 25  1  0  0  0  0
 11 26  1  0  0  0  0
 14 27  1  0  0  0  0
 14 28  1  0  0  0  0
M  END
> <Chemgauss4>
-8.166095733642578

> <Chemgauss4>
-8.166096

$$$$
