F199
  -OEChem-12061915503D

 25 26  0     0  0  0  0  0  0999 V2000
  -20.9599   14.7397   27.5242 C   0  0  0  0  0  0  0  0  0  0  0  0
  -16.8757   13.7596   24.4554 C   0  0  0  0  0  0  0  0  0  0  0  0
  -18.0962   12.0123   23.9148 C   0  0  0  0  0  0  0  0  0  0  0  0
  -18.1000   13.1200   24.7269 C   0  0  0  0  0  0  0  0  0  0  0  0
  -21.2062   13.5335   26.8459 C   0  0  0  0  0  0  0  0  0  0  0  0
  -22.0805   14.9164   28.2918 C   0  0  0  0  0  0  0  0  0  0  0  0
  -20.3329   12.8499   25.8766 C   0  0  0  0  0  0  0  0  0  0  0  0
  -22.5082   15.9502   29.2425 C   0  0  0  0  0  0  0  0  0  0  0  0
  -16.4579   11.0972   22.2544 C   0  0  0  0  0  0  0  0  0  0  0  0
  -16.1470   13.1121   23.5422 N   0  0  0  0  0  0  0  0  0  0  0  0
  -22.3891   13.0027   27.1681 N   0  0  0  0  0  0  0  0  0  0  0  0
  -16.9157   12.0540   23.2330 N   0  0  0  0  0  0  0  0  0  0  0  0
  -19.0930   13.4923   25.5978 N   0  0  0  0  0  0  0  0  0  0  0  0
  -20.6882   11.8078   25.3301 O   0  0  0  0  0  0  0  0  0  0  0  0
  -22.9409   13.8863   28.0880 O   0  0  0  0  0  0  0  0  0  0  0  0
  -20.0968   15.3866   27.4660 H   0  0  0  0  0  0  0  0  0  0  0  0
  -16.4819   14.6709   24.8829 H   0  0  0  0  0  0  0  0  0  0  0  0
  -18.8146   11.2171   23.7671 H   0  0  0  0  0  0  0  0  0  0  0  0
  -23.0692   16.7577   28.7378 H   0  0  0  0  0  0  0  0  0  0  0  0
  -23.1601   15.5461   30.0399 H   0  0  0  0  0  0  0  0  0  0  0  0
  -21.6544   16.4209   29.7658 H   0  0  0  0  0  0  0  0  0  0  0  0
  -16.8058   11.4268   21.2718 H   0  0  0  0  0  0  0  0  0  0  0  0
  -15.3657   11.0479   22.2765 H   0  0  0  0  0  0  0  0  0  0  0  0
  -16.8658   10.1113   22.4946 H   0  0  0  0  0  0  0  0  0  0  0  0
  -18.9154   14.3652   26.1279 H   0  0  0  0  0  0  0  0  0  0  0  0
  1  5  1  0  0  0  0
  1  6  2  0  0  0  0
  2  4  1  0  0  0  0
  2 10  2  0  0  0  0
  3  4  2  0  0  0  0
  3 12  1  0  0  0  0
  4 13  1  0  0  0  0
  5  7  1  0  0  0  0
  5 11  2  0  0  0  0
  6  8  1  0  0  0  0
  6 15  1  0  0  0  0
  7 13  1  0  0  0  0
  7 14  2  0  0  0  0
  9 12  1  0  0  0  0
 10 12  1  0  0  0  0
 11 15  1  0  0  0  0
  1 16  1  0  0  0  0
  2 17  1  0  0  0  0
  3 18  1  0  0  0  0
  8 19  1  0  0  0  0
  8 20  1  0  0  0  0
  8 21  1  0  0  0  0
  9 22  1  0  0  0  0
  9 23  1  0  0  0  0
  9 24  1  0  0  0  0
 13 25  1  0  0  0  0
M  END
> <Chemgauss4>
-6.021670341491699

> <Chemgauss4>
-6.021670

$$$$
