F650
  -OEChem-12061918293D

 23 24  0     0  0  0  0  0  0999 V2000
  -17.2462   12.0994   23.7969 C   0  0  0  0  0  0  0  0  0  0  0  0
  -18.7942   10.9908   22.6970 C   0  0  0  0  0  0  0  0  0  0  0  0
  -18.6072   11.7412   23.8321 C   0  0  0  0  0  0  0  0  0  0  0  0
  -19.6284   12.0659   24.8232 C   0  0  0  0  0  0  0  0  0  0  0  0
  -18.1370   13.5595   27.8699 C   0  0  0  0  0  0  0  0  0  0  0  0
  -19.3245   14.4757   27.6042 C   0  0  0  0  0  0  0  0  0  0  0  0
  -17.8989   12.9132   26.5121 C   0  0  0  0  0  0  0  0  0  0  0  0
  -20.1810   13.6496   26.6576 C   0  0  0  0  0  0  0  0  0  0  0  0
  -16.6134   11.6161   22.7245 N   0  0  0  0  0  0  0  0  0  0  0  0
  -17.5810   10.9466   22.0753 N   0  0  0  0  0  0  0  0  0  0  0  0
  -19.2282   12.8438   25.9060 N   0  0  0  0  0  0  0  0  0  0  0  0
  -20.7747   11.6387   24.6898 O   0  0  0  0  0  0  0  0  0  0  0  0
  -16.6857   12.6921   24.5061 H   0  0  0  0  0  0  0  0  0  0  0  0
  -19.6600   10.4947   22.2813 H   0  0  0  0  0  0  0  0  0  0  0  0
  -17.2623   14.1491   28.1690 H   0  0  0  0  0  0  0  0  0  0  0  0
  -18.3455   12.8243   28.6521 H   0  0  0  0  0  0  0  0  0  0  0  0
  -19.8679   14.6714   28.5359 H   0  0  0  0  0  0  0  0  0  0  0  0
  -19.0225   15.4324   27.1694 H   0  0  0  0  0  0  0  0  0  0  0  0
  -17.2089   13.4876   25.8873 H   0  0  0  0  0  0  0  0  0  0  0  0
  -17.5235   11.8890   26.6152 H   0  0  0  0  0  0  0  0  0  0  0  0
  -20.9048   13.0137   27.1759 H   0  0  0  0  0  0  0  0  0  0  0  0
  -20.7168   14.2830   25.9421 H   0  0  0  0  0  0  0  0  0  0  0  0
  -17.3437   10.4808   21.2084 H   0  0  0  0  0  0  0  0  0  0  0  0
  1  3  1  0  0  0  0
  1  9  2  0  0  0  0
  2  3  2  0  0  0  0
  2 10  1  0  0  0  0
  3  4  1  0  0  0  0
  4 11  1  0  0  0  0
  4 12  2  0  0  0  0
  5  6  1  0  0  0  0
  5  7  1  0  0  0  0
  6  8  1  0  0  0  0
  7 11  1  0  0  0  0
  8 11  1  0  0  0  0
  9 10  1  0  0  0  0
  1 13  1  0  0  0  0
  2 14  1  0  0  0  0
  5 15  1  0  0  0  0
  5 16  1  0  0  0  0
  6 17  1  0  0  0  0
  6 18  1  0  0  0  0
  7 19  1  0  0  0  0
  7 20  1  0  0  0  0
  8 21  1  0  0  0  0
  8 22  1  0  0  0  0
 10 23  1  0  0  0  0
M  END
> <Chemgauss4>
-8.738581657409668

> <Chemgauss4>
-8.738582

$$$$
