F529
  -OEChem-12061918033D

 23 23  0     0  0  0  0  0  0999 V2000
  -18.6858   11.6060   24.0873 C   0  0  0  0  0  0  0  0  0  0  0  0
  -19.3335   11.9310   25.2791 C   0  0  0  0  0  0  0  0  0  0  0  0
  -17.6391   12.4025   23.6227 C   0  0  0  0  0  0  0  0  0  0  0  0
  -18.9346   13.0525   26.0063 C   0  0  0  0  0  0  0  0  0  0  0  0
  -17.2402   13.5240   24.3499 C   0  0  0  0  0  0  0  0  0  0  0  0
  -17.8879   13.8490   25.5417 C   0  0  0  0  0  0  0  0  0  0  0  0
  -15.1097   13.7769   23.0761 C   0  0  0  0  0  0  0  0  0  0  0  0
  -18.7737   16.3798   26.2928 C   0  0  0  0  0  0  0  0  0  0  0  0
  -16.1779   14.3145   23.8585 N   0  0  0  0  0  0  0  0  0  0  0  0
  -17.3604   14.8439   27.8797 O   0  0  0  0  0  0  0  0  0  0  0  0
  -16.2563   15.8629   25.8577 O   0  0  0  0  0  0  0  0  0  0  0  0
  -17.4168   15.2479   26.4837 S   0  0  0  0  0  0  0  0  0  0  0  0
  -18.9961   10.7325   23.5214 H   0  0  0  0  0  0  0  0  0  0  0  0
  -20.1485   11.3107   25.6404 H   0  0  0  0  0  0  0  0  0  0  0  0
  -17.1418   12.1386   22.6927 H   0  0  0  0  0  0  0  0  0  0  0  0
  -19.4469   13.2945   26.9337 H   0  0  0  0  0  0  0  0  0  0  0  0
  -15.2642   12.6967   22.9367 H   0  0  0  0  0  0  0  0  0  0  0  0
  -15.0881   14.2736   22.0948 H   0  0  0  0  0  0  0  0  0  0  0  0
  -14.1543   13.9467   23.5942 H   0  0  0  0  0  0  0  0  0  0  0  0
  -18.5490   17.2853   26.8586 H   0  0  0  0  0  0  0  0  0  0  0  0
  -18.8841   16.6092   25.2319 H   0  0  0  0  0  0  0  0  0  0  0  0
  -19.6766   15.9029   26.6772 H   0  0  0  0  0  0  0  0  0  0  0  0
  -16.1983   15.2902   24.0839 H   0  0  0  0  0  0  0  0  0  0  0  0
  1  2  1  0  0  0  0
  1  3  2  0  0  0  0
  2  4  2  0  0  0  0
  3  5  1  0  0  0  0
  4  6  1  0  0  0  0
  5  6  2  0  0  0  0
  5  9  1  0  0  0  0
  6 12  1  0  0  0  0
  7  9  1  0  0  0  0
  8 12  1  0  0  0  0
 10 12  2  0  0  0  0
 11 12  2  0  0  0  0
  1 13  1  0  0  0  0
  2 14  1  0  0  0  0
  3 15  1  0  0  0  0
  4 16  1  0  0  0  0
  7 17  1  0  0  0  0
  7 18  1  0  0  0  0
  7 19  1  0  0  0  0
  8 20  1  0  0  0  0
  8 21  1  0  0  0  0
  8 22  1  0  0  0  0
  9 23  1  0  0  0  0
M  END
> <Chemgauss4>
-6.379136562347412

> <Chemgauss4>
-6.379137

$$$$
