F275
  -OEChem-12061916023D

 20 20  0     0  0  0  0  0  0999 V2000
  -18.7185   12.8476   25.5886 C   0  0  0  0  0  0  0  0  0  0  0  0
  -16.8014   13.7772   24.4497 C   0  0  0  0  0  0  0  0  0  0  0  0
  -17.7506   11.6838   23.7056 C   0  0  0  0  0  0  0  0  0  0  0  0
  -17.7631   13.8553   25.4570 C   0  0  0  0  0  0  0  0  0  0  0  0
  -18.7123   11.7618   24.7130 C   0  0  0  0  0  0  0  0  0  0  0  0
  -16.7951   12.6914   23.5740 C   0  0  0  0  0  0  0  0  0  0  0  0
  -17.7692   15.0160   26.3934 C   0  0  0  0  0  0  0  0  0  0  0  0
  -14.3472   11.7392   23.1205 N   0  0  0  0  0  0  0  0  0  0  0  0
  -16.1135   11.7561   21.2429 O   0  0  0  0  0  0  0  0  0  0  0  0
  -15.1176   13.9366   22.0183 O   0  0  0  0  0  0  0  0  0  0  0  0
  -19.6296   10.7941   24.8401 F   0  0  0  0  0  0  0  0  0  0  0  0
  -15.5899   12.5913   22.3148 S   0  0  0  0  0  0  0  0  0  0  0  0
  -19.4716   12.8990   26.3704 H   0  0  0  0  0  0  0  0  0  0  0  0
  -16.0576   14.5638   24.3493 H   0  0  0  0  0  0  0  0  0  0  0  0
  -17.7549   10.8334   23.0290 H   0  0  0  0  0  0  0  0  0  0  0  0
  -17.1450   14.8030   27.2698 H   0  0  0  0  0  0  0  0  0  0  0  0
  -17.3875   15.9228   25.9065 H   0  0  0  0  0  0  0  0  0  0  0  0
  -18.7863   15.2446   26.7378 H   0  0  0  0  0  0  0  0  0  0  0  0
  -14.1748   10.7644   22.8456 H   0  0  0  0  0  0  0  0  0  0  0  0
  -13.4965   12.2551   23.3762 H   0  0  0  0  0  0  0  0  0  0  0  0
  1  4  1  0  0  0  0
  1  5  2  0  0  0  0
  2  4  2  0  0  0  0
  2  6  1  0  0  0  0
  3  5  1  0  0  0  0
  3  6  2  0  0  0  0
  4  7  1  0  0  0  0
  5 11  1  0  0  0  0
  6 12  1  0  0  0  0
  8 12  1  0  0  0  0
  9 12  2  0  0  0  0
 10 12  2  0  0  0  0
  1 13  1  0  0  0  0
  2 14  1  0  0  0  0
  3 15  1  0  0  0  0
  7 16  1  0  0  0  0
  7 17  1  0  0  0  0
  7 18  1  0  0  0  0
  8 19  1  0  0  0  0
  8 20  1  0  0  0  0
M  END
> <Chemgauss4>
-6.477324485778809

> <Chemgauss4>
-6.477324

$$$$
