F740
  -OEChem-12061918473D

 26 28  0     0  0  0  0  0  0999 V2000
  -18.3770   11.4223   23.5435 C   0  0  0  0  0  0  0  0  0  0  0  0
  -17.1598   11.3539   22.8616 C   0  0  0  0  0  0  0  0  0  0  0  0
  -17.8270   13.6378   24.3903 C   0  0  0  0  0  0  0  0  0  0  0  0
  -18.7088   12.5578   24.3034 C   0  0  0  0  0  0  0  0  0  0  0  0
  -16.3070   12.4337   22.9638 C   0  0  0  0  0  0  0  0  0  0  0  0
  -16.6317   13.5451   23.7075 C   0  0  0  0  0  0  0  0  0  0  0  0
  -19.9816   12.6068   25.0057 C   0  0  0  0  0  0  0  0  0  0  0  0
  -21.4493   14.7517   27.8319 C   0  0  0  0  0  0  0  0  0  0  0  0
  -22.3088   14.5246   26.6243 C   0  0  0  0  0  0  0  0  0  0  0  0
  -14.6790   13.8525   22.8276 C   0  0  0  0  0  0  0  0  0  0  0  0
  -21.2277   13.5380   26.9714 C   0  0  0  0  0  0  0  0  0  0  0  0
  -20.0434   13.4050   26.1538 N   0  0  0  0  0  0  0  0  0  0  0  0
  -20.9528   11.9448   24.5989 O   0  0  0  0  0  0  0  0  0  0  0  0
  -15.0866   12.5461   22.3722 O   0  0  0  0  0  0  0  0  0  0  0  0
  -15.6552   14.4924   23.6750 O   0  0  0  0  0  0  0  0  0  0  0  0
  -19.0679   10.5850   23.4802 H   0  0  0  0  0  0  0  0  0  0  0  0
  -16.8995   10.4804   22.2747 H   0  0  0  0  0  0  0  0  0  0  0  0
  -18.0687   14.5211   24.9726 H   0  0  0  0  0  0  0  0  0  0  0  0
  -20.7236   15.5548   27.7891 H   0  0  0  0  0  0  0  0  0  0  0  0
  -21.8982   14.6037   28.8064 H   0  0  0  0  0  0  0  0  0  0  0  0
  -23.3366   14.2236   26.7854 H   0  0  0  0  0  0  0  0  0  0  0  0
  -22.1599   15.1752   25.7712 H   0  0  0  0  0  0  0  0  0  0  0  0
  -13.7409   13.7530   23.3857 H   0  0  0  0  0  0  0  0  0  0  0  0
  -14.5026   14.4894   21.9532 H   0  0  0  0  0  0  0  0  0  0  0  0
  -21.5506   12.5866   27.3800 H   0  0  0  0  0  0  0  0  0  0  0  0
  -19.2040   13.8744   26.4774 H   0  0  0  0  0  0  0  0  0  0  0  0
  1  2  2  0  0  0  0
  1  4  1  0  0  0  0
  2  5  1  0  0  0  0
  3  4  2  0  0  0  0
  3  6  1  0  0  0  0
  4  7  1  0  0  0  0
  5  6  2  0  0  0  0
  5 14  1  0  0  0  0
  6 15  1  0  0  0  0
  7 12  1  0  0  0  0
  7 13  2  0  0  0  0
  8  9  1  0  0  0  0
  8 11  1  0  0  0  0
  9 11  1  0  0  0  0
 10 14  1  0  0  0  0
 10 15  1  0  0  0  0
 11 12  1  0  0  0  0
  1 16  1  0  0  0  0
  2 17  1  0  0  0  0
  3 18  1  0  0  0  0
  8 19  1  0  0  0  0
  8 20  1  0  0  0  0
  9 21  1  0  0  0  0
  9 22  1  0  0  0  0
 10 23  1  0  0  0  0
 10 24  1  0  0  0  0
 11 25  1  0  0  0  0
 12 26  1  0  0  0  0
M  END
> <Chemgauss4>
-7.490913391113281

> <Chemgauss4>
-7.490913

$$$$
