F467
  -OEChem-12061917263D

 23 23  0     0  0  0  0  0  0999 V2000
  -18.9285   14.1508   25.3921 C   0  0  0  0  0  0  0  0  0  0  0  0
  -18.9992   13.1349   26.3388 C   0  0  0  0  0  0  0  0  0  0  0  0
  -18.1572   13.9753   24.2486 C   0  0  0  0  0  0  0  0  0  0  0  0
  -18.2857   11.9721   26.0969 C   0  0  0  0  0  0  0  0  0  0  0  0
  -17.4812   12.7750   24.1003 C   0  0  0  0  0  0  0  0  0  0  0  0
  -16.9886   11.5371   22.0062 C   0  0  0  0  0  0  0  0  0  0  0  0
  -15.6164   13.5264   22.6450 C   0  0  0  0  0  0  0  0  0  0  0  0
  -14.3856   13.1201   23.4347 C   0  0  0  0  0  0  0  0  0  0  0  0
  -17.5258   11.7652   24.9981 N   0  0  0  0  0  0  0  0  0  0  0  0
  -16.6995   12.6115   22.9300 N   0  0  0  0  0  0  0  0  0  0  0  0
  -14.0224   11.7890   23.0912 O   0  0  0  0  0  0  0  0  0  0  0  0
  -19.4726   15.0781   25.5457 H   0  0  0  0  0  0  0  0  0  0  0  0
  -19.5938   13.2495   27.2379 H   0  0  0  0  0  0  0  0  0  0  0  0
  -18.0969   14.7627   23.5043 H   0  0  0  0  0  0  0  0  0  0  0  0
  -18.3079   11.1495   26.8042 H   0  0  0  0  0  0  0  0  0  0  0  0
  -16.2794   11.5743   21.1662 H   0  0  0  0  0  0  0  0  0  0  0  0
  -16.8923   10.5719   22.5249 H   0  0  0  0  0  0  0  0  0  0  0  0
  -18.0145   11.6477   21.6250 H   0  0  0  0  0  0  0  0  0  0  0  0
  -15.9424   14.5371   22.9104 H   0  0  0  0  0  0  0  0  0  0  0  0
  -15.4101   13.4870   21.5712 H   0  0  0  0  0  0  0  0  0  0  0  0
  -14.6033   13.1449   24.5070 H   0  0  0  0  0  0  0  0  0  0  0  0
  -13.5378   13.7811   23.2271 H   0  0  0  0  0  0  0  0  0  0  0  0
  -13.2354   11.5699   23.6155 H   0  0  0  0  0  0  0  0  0  0  0  0
  1  2  1  0  0  0  0
  1  3  2  0  0  0  0
  2  4  2  0  0  0  0
  3  5  1  0  0  0  0
  4  9  1  0  0  0  0
  5  9  2  0  0  0  0
  5 10  1  0  0  0  0
  6 10  1  0  0  0  0
  7  8  1  0  0  0  0
  7 10  1  0  0  0  0
  8 11  1  0  0  0  0
  1 12  1  0  0  0  0
  2 13  1  0  0  0  0
  3 14  1  0  0  0  0
  4 15  1  0  0  0  0
  6 16  1  0  0  0  0
  6 17  1  0  0  0  0
  6 18  1  0  0  0  0
  7 19  1  0  0  0  0
  7 20  1  0  0  0  0
  8 21  1  0  0  0  0
  8 22  1  0  0  0  0
 11 23  1  0  0  0  0
M  END
> <Chemgauss4>
-7.048900604248047

> <Chemgauss4>
-7.048901

$$$$
