F362
  -OEChem-12061916033D

 30 31  0     0  0  0  0  0  0999 V2000
  -21.6883   11.9790   25.8662 C   0  0  0  0  0  0  0  0  0  0  0  0
  -20.0035   11.7609   24.6326 C   0  0  0  0  0  0  0  0  0  0  0  0
  -17.5691   13.0917   24.7957 C   0  0  0  0  0  0  0  0  0  0  0  0
  -18.5176   13.3907   25.6980 C   0  0  0  0  0  0  0  0  0  0  0  0
  -17.9236   12.0573   23.7783 C   0  0  0  0  0  0  0  0  0  0  0  0
  -16.8667   11.7108   22.7592 C   0  0  0  0  0  0  0  0  0  0  0  0
  -16.7787   16.1286   27.0028 C   0  0  0  0  0  0  0  0  0  0  0  0
  -17.9241   12.8511   28.5906 C   0  0  0  0  0  0  0  0  0  0  0  0
  -18.0765   15.7079   26.4016 C   0  0  0  0  0  0  0  0  0  0  0  0
  -18.7189   14.0020   28.0745 C   0  0  0  0  0  0  0  0  0  0  0  0
  -21.2260   11.2944   24.7893 N   0  0  0  0  0  0  0  0  0  0  0  0
  -20.8427   12.8512   26.4065 N   0  0  0  0  0  0  0  0  0  0  0  0
  -19.0627   11.4347   23.7028 N   0  0  0  0  0  0  0  0  0  0  0  0
  -19.7448   12.7206   25.6164 N   0  0  0  0  0  0  0  0  0  0  0  0
  -18.3634   14.3101   26.6956 N   0  0  0  0  0  0  0  0  0  0  0  0
  -22.6779   11.8392   26.2746 H   0  0  0  0  0  0  0  0  0  0  0  0
  -16.5921   13.5572   24.7806 H   0  0  0  0  0  0  0  0  0  0  0  0
  -16.2604   10.8962   23.1405 H   0  0  0  0  0  0  0  0  0  0  0  0
  -16.2466   12.5831   22.5804 H   0  0  0  0  0  0  0  0  0  0  0  0
  -17.3501   11.4128   21.8346 H   0  0  0  0  0  0  0  0  0  0  0  0
  -15.9672   15.5070   26.5966 H   0  0  0  0  0  0  0  0  0  0  0  0
  -16.5878   17.1846   26.7607 H   0  0  0  0  0  0  0  0  0  0  0  0
  -16.8235   16.0052   28.0949 H   0  0  0  0  0  0  0  0  0  0  0  0
  -16.8526   13.0958   28.5468 H   0  0  0  0  0  0  0  0  0  0  0  0
  -18.2108   12.6456   29.6326 H   0  0  0  0  0  0  0  0  0  0  0  0
  -18.1227   11.9624   27.9736 H   0  0  0  0  0  0  0  0  0  0  0  0
  -18.8823   16.3339   26.8126 H   0  0  0  0  0  0  0  0  0  0  0  0
  -18.0275   15.8428   25.3110 H   0  0  0  0  0  0  0  0  0  0  0  0
  -19.7885   13.7495   28.1217 H   0  0  0  0  0  0  0  0  0  0  0  0
  -18.5224   14.8841   28.7016 H   0  0  0  0  0  0  0  0  0  0  0  0
  1 11  1  0  0  0  0
  1 12  2  0  0  0  0
  2 11  2  0  0  0  0
  2 13  1  0  0  0  0
  2 14  1  0  0  0  0
  3  4  2  0  0  0  0
  3  5  1  0  0  0  0
  4 14  1  0  0  0  0
  4 15  1  0  0  0  0
  5  6  1  0  0  0  0
  5 13  2  0  0  0  0
  7  9  1  0  0  0  0
  8 10  1  0  0  0  0
  9 15  1  0  0  0  0
 10 15  1  0  0  0  0
 12 14  1  0  0  0  0
  1 16  1  0  0  0  0
  3 17  1  0  0  0  0
  6 18  1  0  0  0  0
  6 19  1  0  0  0  0
  6 20  1  0  0  0  0
  7 21  1  0  0  0  0
  7 22  1  0  0  0  0
  7 23  1  0  0  0  0
  8 24  1  0  0  0  0
  8 25  1  0  0  0  0
  8 26  1  0  0  0  0
  9 27  1  0  0  0  0
  9 28  1  0  0  0  0
 10 29  1  0  0  0  0
 10 30  1  0  0  0  0
M  END
> <Chemgauss4>
-5.9152727127075195

> <Chemgauss4>
-5.915273

$$$$
