F13
  -OEChem-12061915303D

 16 16  0     0  0  0  0  0  0999 V2000
  -19.7106   12.5048   25.2921 C   0  0  0  0  0  0  0  0  0  0  0  0
  -17.5330   12.5652   24.9929 C   0  0  0  0  0  0  0  0  0  0  0  0
  -18.5143   12.9867   25.8565 C   0  0  0  0  0  0  0  0  0  0  0  0
  -17.5614   11.2496   22.8603 C   0  0  0  0  0  0  0  0  0  0  0  0
  -16.3208   11.9903   22.3798 C   0  0  0  0  0  0  0  0  0  0  0  0
  -19.5099   11.8290   24.1577 N   0  0  0  0  0  0  0  0  0  0  0  0
  -18.1761   11.8833   24.0022 N   0  0  0  0  0  0  0  0  0  0  0  0
  -15.3411   12.0024   23.4099 O   0  0  0  0  0  0  0  0  0  0  0  0
  -18.3537   13.9720   27.4275 Br  0  0  0  0  0  0  0  0  0  0  0  0
  -20.7225   12.6151   25.6560 H   0  0  0  0  0  0  0  0  0  0  0  0
  -16.4585   12.6888   24.9978 H   0  0  0  0  0  0  0  0  0  0  0  0
  -17.3213   10.2184   23.1443 H   0  0  0  0  0  0  0  0  0  0  0  0
  -18.3173   11.2126   22.0674 H   0  0  0  0  0  0  0  0  0  0  0  0
  -15.8922   11.4732   21.5156 H   0  0  0  0  0  0  0  0  0  0  0  0
  -16.5469   13.0236   22.0972 H   0  0  0  0  0  0  0  0  0  0  0  0
  -14.5732   12.4823   23.0600 H   0  0  0  0  0  0  0  0  0  0  0  0
  1  3  1  0  0  0  0
  1  6  2  0  0  0  0
  2  3  2  0  0  0  0
  2  7  1  0  0  0  0
  3  9  1  0  0  0  0
  4  5  1  0  0  0  0
  4  7  1  0  0  0  0
  5  8  1  0  0  0  0
  6  7  1  0  0  0  0
  1 10  1  0  0  0  0
  2 11  1  0  0  0  0
  4 12  1  0  0  0  0
  4 13  1  0  0  0  0
  5 14  1  0  0  0  0
  5 15  1  0  0  0  0
  8 16  1  0  0  0  0
M  END
> <Chemgauss4>
-6.80849552154541

> <Chemgauss4>
-6.808496

$$$$
