F584
  -OEChem-12061918113D

 27 28  0     0  0  0  0  0  0999 V2000
  -16.4298   12.4362   23.0835 C   0  0  0  0  0  0  0  0  0  0  0  0
  -16.4118   13.6600   23.7504 C   0  0  0  0  0  0  0  0  0  0  0  0
  -17.4579   11.5438   23.3276 C   0  0  0  0  0  0  0  0  0  0  0  0
  -18.4787   13.1379   24.8996 C   0  0  0  0  0  0  0  0  0  0  0  0
  -17.4145   14.0265   24.6778 C   0  0  0  0  0  0  0  0  0  0  0  0
  -18.4652   11.8923   24.2241 C   0  0  0  0  0  0  0  0  0  0  0  0
  -17.8089   15.9737   26.2887 C   0  0  0  0  0  0  0  0  0  0  0  0
  -19.6690   13.3426   25.7989 C   0  0  0  0  0  0  0  0  0  0  0  0
  -18.9082   15.3298   27.0798 C   0  0  0  0  0  0  0  0  0  0  0  0
  -19.9936   14.7700   26.1910 C   0  0  0  0  0  0  0  0  0  0  0  0
  -19.2399   10.0270   25.4795 C   0  0  0  0  0  0  0  0  0  0  0  0
  -17.1996   15.2940   25.2693 N   0  0  0  0  0  0  0  0  0  0  0  0
  -17.4194   17.1034   26.6080 O   0  0  0  0  0  0  0  0  0  0  0  0
  -19.4536   10.9668   24.4330 O   0  0  0  0  0  0  0  0  0  0  0  0
  -15.6387   12.1849   22.3840 H   0  0  0  0  0  0  0  0  0  0  0  0
  -15.5802   14.3337   23.5461 H   0  0  0  0  0  0  0  0  0  0  0  0
  -17.4743   10.5832   22.8209 H   0  0  0  0  0  0  0  0  0  0  0  0
  -20.5668   12.9647   25.2914 H   0  0  0  0  0  0  0  0  0  0  0  0
  -19.5328   12.7308   26.7005 H   0  0  0  0  0  0  0  0  0  0  0  0
  -18.4757   14.5767   27.7476 H   0  0  0  0  0  0  0  0  0  0  0  0
  -19.3465   16.1090   27.7161 H   0  0  0  0  0  0  0  0  0  0  0  0
  -20.1520   15.3948   25.3035 H   0  0  0  0  0  0  0  0  0  0  0  0
  -20.9366   14.7628   26.7516 H   0  0  0  0  0  0  0  0  0  0  0  0
  -20.0951    9.3495   25.5421 H   0  0  0  0  0  0  0  0  0  0  0  0
  -19.1117   10.5575   26.4264 H   0  0  0  0  0  0  0  0  0  0  0  0
  -18.3372    9.4514   25.2615 H   0  0  0  0  0  0  0  0  0  0  0  0
  -16.4150   15.8065   24.8709 H   0  0  0  0  0  0  0  0  0  0  0  0
  1  2  1  0  0  0  0
  1  3  2  0  0  0  0
  2  5  2  0  0  0  0
  3  6  1  0  0  0  0
  4  5  1  0  0  0  0
  4  6  2  0  0  0  0
  4  8  1  0  0  0  0
  5 12  1  0  0  0  0
  6 14  1  0  0  0  0
  7  9  1  0  0  0  0
  7 12  1  0  0  0  0
  7 13  2  0  0  0  0
  8 10  1  0  0  0  0
  9 10  1  0  0  0  0
 11 14  1  0  0  0  0
  1 15  1  0  0  0  0
  2 16  1  0  0  0  0
  3 17  1  0  0  0  0
  8 18  1  0  0  0  0
  8 19  1  0  0  0  0
  9 20  1  0  0  0  0
  9 21  1  0  0  0  0
 10 22  1  0  0  0  0
 10 23  1  0  0  0  0
 11 24  1  0  0  0  0
 11 25  1  0  0  0  0
 11 26  1  0  0  0  0
 12 27  1  0  0  0  0
M  END
> <Chemgauss4>
-6.532738208770752

> <Chemgauss4>
-6.532738

$$$$
