F96
  -OEChem-12061915443D

 19 19  0     0  0  0  0  0  0999 V2000
  -15.9688   14.2319   23.6071 C   0  0  0  0  0  0  0  0  0  0  0  0
  -15.8246   12.2524   22.6605 C   0  0  0  0  0  0  0  0  0  0  0  0
  -16.5828   12.9660   23.5563 C   0  0  0  0  0  0  0  0  0  0  0  0
  -19.8917   13.5771   25.0982 C   0  0  0  0  0  0  0  0  0  0  0  0
  -20.4351   14.8217   25.7179 C   0  0  0  0  0  0  0  0  0  0  0  0
  -17.7943   12.4989   24.3100 C   0  0  0  0  0  0  0  0  0  0  0  0
  -14.9027   14.3203   22.8073 N   0  0  0  0  0  0  0  0  0  0  0  0
  -14.8408   13.1010   22.2456 N   0  0  0  0  0  0  0  0  0  0  0  0
  -18.5250   13.6001   24.8952 N   0  0  0  0  0  0  0  0  0  0  0  0
  -20.6529   12.6571   24.8230 O   0  0  0  0  0  0  0  0  0  0  0  0
  -16.2520   15.0954   24.1924 H   0  0  0  0  0  0  0  0  0  0  0  0
  -15.8930   11.2401   22.2881 H   0  0  0  0  0  0  0  0  0  0  0  0
  -20.7325   15.5704   24.9662 H   0  0  0  0  0  0  0  0  0  0  0  0
  -21.3416   14.6328   26.3151 H   0  0  0  0  0  0  0  0  0  0  0  0
  -19.7463   15.3500   26.3963 H   0  0  0  0  0  0  0  0  0  0  0  0
  -18.4764   11.9563   23.6464 H   0  0  0  0  0  0  0  0  0  0  0  0
  -17.5147   11.8154   25.1186 H   0  0  0  0  0  0  0  0  0  0  0  0
  -14.0969   12.9149   21.5846 H   0  0  0  0  0  0  0  0  0  0  0  0
  -18.0093   14.4306   25.1704 H   0  0  0  0  0  0  0  0  0  0  0  0
  1  3  1  0  0  0  0
  1  7  2  0  0  0  0
  2  3  2  0  0  0  0
  2  8  1  0  0  0  0
  3  6  1  0  0  0  0
  4  5  1  0  0  0  0
  4  9  1  0  0  0  0
  4 10  2  0  0  0  0
  6  9  1  0  0  0  0
  7  8  1  0  0  0  0
  1 11  1  0  0  0  0
  2 12  1  0  0  0  0
  5 13  1  0  0  0  0
  5 14  1  0  0  0  0
  5 15  1  0  0  0  0
  6 16  1  0  0  0  0
  6 17  1  0  0  0  0
  8 18  1  0  0  0  0
  9 19  1  0  0  0  0
M  END
> <Chemgauss4>
-6.984133720397949

> <Chemgauss4>
-6.984134

$$$$
