F205
  -OEChem-12061915513D

 20 20  0     0  0  0  0  0  0999 V2000
  -17.4372   12.7928   24.2803 C   0  0  0  0  0  0  0  0  0  0  0  0
  -17.6047   13.9431   25.1234 C   0  0  0  0  0  0  0  0  0  0  0  0
  -18.4186   11.8964   24.1342 C   0  0  0  0  0  0  0  0  0  0  0  0
  -18.7528   14.1501   25.7895 C   0  0  0  0  0  0  0  0  0  0  0  0
  -19.7159   12.0888   24.8585 C   0  0  0  0  0  0  0  0  0  0  0  0
  -18.9128   15.3601   26.6675 C   0  0  0  0  0  0  0  0  0  0  0  0
  -21.0533   13.4746   26.3986 C   0  0  0  0  0  0  0  0  0  0  0  0
  -19.8089   13.2381   25.6675 N   0  0  0  0  0  0  0  0  0  0  0  0
  -18.3275   10.7818   23.3501 N   0  0  0  0  0  0  0  0  0  0  0  0
  -20.6155   11.2590   24.7189 O   0  0  0  0  0  0  0  0  0  0  0  0
  -16.4866   12.6811   23.7689 H   0  0  0  0  0  0  0  0  0  0  0  0
  -16.7692   14.6315   25.1968 H   0  0  0  0  0  0  0  0  0  0  0  0
  -19.3180   16.1792   26.0800 H   0  0  0  0  0  0  0  0  0  0  0  0
  -17.9442   15.6419   27.0719 H   0  0  0  0  0  0  0  0  0  0  0  0
  -19.5889   15.1243   27.4849 H   0  0  0  0  0  0  0  0  0  0  0  0
  -21.7368   14.0714   25.7768 H   0  0  0  0  0  0  0  0  0  0  0  0
  -21.5251   12.5108   26.6406 H   0  0  0  0  0  0  0  0  0  0  0  0
  -20.8341   14.0194   27.3288 H   0  0  0  0  0  0  0  0  0  0  0  0
  -17.4806   10.6185   22.8521 H   0  0  0  0  0  0  0  0  0  0  0  0
  -19.1110   10.1687   23.3017 H   0  0  0  0  0  0  0  0  0  0  0  0
  1  2  1  0  0  0  0
  1  3  2  0  0  0  0
  2  4  2  0  0  0  0
  3  5  1  0  0  0  0
  3  9  1  0  0  0  0
  4  6  1  0  0  0  0
  4  8  1  0  0  0  0
  5  8  1  0  0  0  0
  5 10  2  0  0  0  0
  7  8  1  0  0  0  0
  1 11  1  0  0  0  0
  2 12  1  0  0  0  0
  6 13  1  0  0  0  0
  6 14  1  0  0  0  0
  6 15  1  0  0  0  0
  7 16  1  0  0  0  0
  7 17  1  0  0  0  0
  7 18  1  0  0  0  0
  9 19  1  0  0  0  0
  9 20  1  0  0  0  0
M  END
> <Chemgauss4>
-6.116450309753418

> <Chemgauss4>
-6.116450

$$$$
