F603
  -OEChem-12061918133D

 24 25  0     0  0  0  0  0  0999 V2000
  -19.8841   12.8392   26.2959 C   0  0  0  0  0  0  0  0  0  0  0  0
  -19.9114   14.2259   26.1307 C   0  0  0  0  0  0  0  0  0  0  0  0
  -18.8701   12.0638   25.7195 C   0  0  0  0  0  0  0  0  0  0  0  0
  -18.9295   14.8876   25.3859 C   0  0  0  0  0  0  0  0  0  0  0  0
  -17.8756   12.7121   24.9678 C   0  0  0  0  0  0  0  0  0  0  0  0
  -17.9296   14.0953   24.8211 C   0  0  0  0  0  0  0  0  0  0  0  0
  -16.1865   13.2301   23.7685 C   0  0  0  0  0  0  0  0  0  0  0  0
  -13.7479   11.9841   20.7714 C   0  0  0  0  0  0  0  0  0  0  0  0
  -14.9596   13.2139   22.9503 C   0  0  0  0  0  0  0  0  0  0  0  0
  -16.7861   12.1922   24.3073 N   0  0  0  0  0  0  0  0  0  0  0  0
  -16.8372   14.3991   24.0496 N   0  0  0  0  0  0  0  0  0  0  0  0
  -14.2201   10.7073   23.0028 O   0  0  0  0  0  0  0  0  0  0  0  0
  -16.1691   11.3727   21.5433 O   0  0  0  0  0  0  0  0  0  0  0  0
  -14.8651   11.6577   22.1147 S   0  0  0  0  0  0  0  0  0  0  0  0
  -20.6611   12.3537   26.8810 H   0  0  0  0  0  0  0  0  0  0  0  0
  -20.7115   14.8025   26.5884 H   0  0  0  0  0  0  0  0  0  0  0  0
  -18.8576   10.9871   25.8549 H   0  0  0  0  0  0  0  0  0  0  0  0
  -18.9486   15.9638   25.2575 H   0  0  0  0  0  0  0  0  0  0  0  0
  -13.6277   11.0669   20.1928 H   0  0  0  0  0  0  0  0  0  0  0  0
  -14.1756   12.7738   20.1519 H   0  0  0  0  0  0  0  0  0  0  0  0
  -12.7910   12.3011   21.1888 H   0  0  0  0  0  0  0  0  0  0  0  0
  -14.0395   13.3204   23.5480 H   0  0  0  0  0  0  0  0  0  0  0  0
  -14.9440   14.0008   22.1784 H   0  0  0  0  0  0  0  0  0  0  0  0
  -16.5639   15.3242   23.7453 H   0  0  0  0  0  0  0  0  0  0  0  0
  1  2  1  0  0  0  0
  1  3  2  0  0  0  0
  2  4  2  0  0  0  0
  3  5  1  0  0  0  0
  4  6  1  0  0  0  0
  5  6  2  0  0  0  0
  5 10  1  0  0  0  0
  6 11  1  0  0  0  0
  7  9  1  0  0  0  0
  7 10  2  0  0  0  0
  7 11  1  0  0  0  0
  8 14  1  0  0  0  0
  9 14  1  0  0  0  0
 12 14  2  0  0  0  0
 13 14  2  0  0  0  0
  1 15  1  0  0  0  0
  2 16  1  0  0  0  0
  3 17  1  0  0  0  0
  4 18  1  0  0  0  0
  8 19  1  0  0  0  0
  8 20  1  0  0  0  0
  8 21  1  0  0  0  0
  9 22  1  0  0  0  0
  9 23  1  0  0  0  0
 11 24  1  0  0  0  0
M  END
> <Chemgauss4>
-7.166259765625

> <Chemgauss4>
-7.166260

$$$$
