F366
  -OEChem-12061916053D

 22 22  0     0  0  0  0  0  0999 V2000
  -17.2371   13.5120   24.1376 C   0  0  0  0  0  0  0  0  0  0  0  0
  -18.1242   11.7552   25.1183 C   0  0  0  0  0  0  0  0  0  0  0  0
  -17.5846   12.1647   23.9235 C   0  0  0  0  0  0  0  0  0  0  0  0
  -18.6008   14.3236   27.8319 C   0  0  0  0  0  0  0  0  0  0  0  0
  -17.4122   11.3719   22.6959 C   0  0  0  0  0  0  0  0  0  0  0  0
  -18.5231   12.8983   27.3122 C   0  0  0  0  0  0  0  0  0  0  0  0
  -16.2075   11.8015   21.8417 C   0  0  0  0  0  0  0  0  0  0  0  0
  -17.5314   13.9306   25.3714 N   0  0  0  0  0  0  0  0  0  0  0  0
  -18.0696   12.8399   25.9433 N   0  0  0  0  0  0  0  0  0  0  0  0
  -15.0121   11.6367   22.5938 O   0  0  0  0  0  0  0  0  0  0  0  0
  -16.7825   14.2085   23.4474 H   0  0  0  0  0  0  0  0  0  0  0  0
  -18.5334   10.8082   25.4433 H   0  0  0  0  0  0  0  0  0  0  0  0
  -17.6236   14.8158   27.7847 H   0  0  0  0  0  0  0  0  0  0  0  0
  -18.9361   14.3298   28.8736 H   0  0  0  0  0  0  0  0  0  0  0  0
  -19.3043   14.9214   27.2429 H   0  0  0  0  0  0  0  0  0  0  0  0
  -17.3031   10.2942   22.9302 H   0  0  0  0  0  0  0  0  0  0  0  0
  -18.3158   11.4401   22.0587 H   0  0  0  0  0  0  0  0  0  0  0  0
  -19.5050   12.4144   27.3633 H   0  0  0  0  0  0  0  0  0  0  0  0
  -17.8346   12.3020   27.9215 H   0  0  0  0  0  0  0  0  0  0  0  0
  -16.1266   11.1807   20.9436 H   0  0  0  0  0  0  0  0  0  0  0  0
  -16.2919   12.8502   21.5383 H   0  0  0  0  0  0  0  0  0  0  0  0
  -14.2805   11.9176   22.0210 H   0  0  0  0  0  0  0  0  0  0  0  0
  1  3  1  0  0  0  0
  1  8  2  0  0  0  0
  2  3  2  0  0  0  0
  2  9  1  0  0  0  0
  3  5  1  0  0  0  0
  4  6  1  0  0  0  0
  5  7  1  0  0  0  0
  6  9  1  0  0  0  0
  7 10  1  0  0  0  0
  8  9  1  0  0  0  0
  1 11  1  0  0  0  0
  2 12  1  0  0  0  0
  4 13  1  0  0  0  0
  4 14  1  0  0  0  0
  4 15  1  0  0  0  0
  5 16  1  0  0  0  0
  5 17  1  0  0  0  0
  6 18  1  0  0  0  0
  6 19  1  0  0  0  0
  7 20  1  0  0  0  0
  7 21  1  0  0  0  0
 10 22  1  0  0  0  0
M  END
> <Chemgauss4>
-7.26779842376709

> <Chemgauss4>
-7.267798

$$$$
