F600
  -OEChem-12061918123D

 16 16  0     0  0  0  0  0  0999 V2000
  -17.3616   12.7777   24.0301 C   0  0  0  0  0  0  0  0  0  0  0  0
  -16.4488   11.3311   22.4049 C   0  0  0  0  0  0  0  0  0  0  0  0
  -18.9739   14.4835   26.8440 C   0  0  0  0  0  0  0  0  0  0  0  0
  -17.6589   13.8940   24.9876 C   0  0  0  0  0  0  0  0  0  0  0  0
  -18.1046   11.7050   23.8595 N   0  0  0  0  0  0  0  0  0  0  0  0
  -17.5687   10.8560   22.9070 N   0  0  0  0  0  0  0  0  0  0  0  0
  -15.6994   10.7189   21.4526 N   0  0  0  0  0  0  0  0  0  0  0  0
  -18.6512   13.4628   25.9092 O   0  0  0  0  0  0  0  0  0  0  0  0
  -15.9569   12.8430   23.0480 S   0  0  0  0  0  0  0  0  0  0  0  0
  -19.7376   14.1177   27.5348 H   0  0  0  0  0  0  0  0  0  0  0  0
  -19.3412   15.3641   26.3111 H   0  0  0  0  0  0  0  0  0  0  0  0
  -18.0749   14.7484   27.4055 H   0  0  0  0  0  0  0  0  0  0  0  0
  -16.7598   14.1852   25.5413 H   0  0  0  0  0  0  0  0  0  0  0  0
  -18.0251   14.7767   24.4524 H   0  0  0  0  0  0  0  0  0  0  0  0
  -15.9446    9.7924   21.0845 H   0  0  0  0  0  0  0  0  0  0  0  0
  -14.8078   11.1133   21.1304 H   0  0  0  0  0  0  0  0  0  0  0  0
  1  4  1  0  0  0  0
  1  5  2  0  0  0  0
  1  9  1  0  0  0  0
  2  6  2  0  0  0  0
  2  7  1  0  0  0  0
  2  9  1  0  0  0  0
  3  8  1  0  0  0  0
  4  8  1  0  0  0  0
  5  6  1  0  0  0  0
  3 10  1  0  0  0  0
  3 11  1  0  0  0  0
  3 12  1  0  0  0  0
  4 13  1  0  0  0  0
  4 14  1  0  0  0  0
  7 15  1  0  0  0  0
  7 16  1  0  0  0  0
M  END
> <Chemgauss4>
-6.503933429718018

> <Chemgauss4>
-6.503933

$$$$
