F579
  -OEChem-12061918113D

 29 31  0     0  0  0  0  0  0999 V2000
  -19.4615   11.4948   24.3359 C   0  0  0  0  0  0  0  0  0  0  0  0
  -18.2707   11.2629   23.6414 C   0  0  0  0  0  0  0  0  0  0  0  0
  -17.3838   13.3977   24.3729 C   0  0  0  0  0  0  0  0  0  0  0  0
  -19.6261   12.6934   25.0633 C   0  0  0  0  0  0  0  0  0  0  0  0
  -17.2467   12.2033   23.6609 C   0  0  0  0  0  0  0  0  0  0  0  0
  -18.5825   13.6239   25.0683 C   0  0  0  0  0  0  0  0  0  0  0  0
  -20.5501   14.2369   26.3404 C   0  0  0  0  0  0  0  0  0  0  0  0
  -22.7167   14.5958   27.5657 C   0  0  0  0  0  0  0  0  0  0  0  0
  -22.4508   16.4189   29.3516 C   0  0  0  0  0  0  0  0  0  0  0  0
  -23.0348   17.0758   28.1373 C   0  0  0  0  0  0  0  0  0  0  0  0
  -23.3400   15.6544   28.4405 C   0  0  0  0  0  0  0  0  0  0  0  0
  -15.0805   12.9615   23.0376 C   0  0  0  0  0  0  0  0  0  0  0  0
  -20.7459   13.0586   25.7964 N   0  0  0  0  0  0  0  0  0  0  0  0
  -21.4128   14.9452   27.1341 N   0  0  0  0  0  0  0  0  0  0  0  0
  -23.3246   13.5647   27.2975 O   0  0  0  0  0  0  0  0  0  0  0  0
  -16.0923   11.9587   22.9785 O   0  0  0  0  0  0  0  0  0  0  0  0
  -19.0435   14.9827   26.0244 S   0  0  0  0  0  0  0  0  0  0  0  0
  -20.2548   10.7530   24.3137 H   0  0  0  0  0  0  0  0  0  0  0  0
  -18.1525   10.3368   23.0843 H   0  0  0  0  0  0  0  0  0  0  0  0
  -16.5832   14.1316   24.3873 H   0  0  0  0  0  0  0  0  0  0  0  0
  -21.3849   16.2258   29.3563 H   0  0  0  0  0  0  0  0  0  0  0  0
  -22.8613   16.6873   30.3174 H   0  0  0  0  0  0  0  0  0  0  0  0
  -23.8383   17.7869   28.2856 H   0  0  0  0  0  0  0  0  0  0  0  0
  -22.3601   17.3258   27.3275 H   0  0  0  0  0  0  0  0  0  0  0  0
  -24.3218   15.3892   28.7681 H   0  0  0  0  0  0  0  0  0  0  0  0
  -14.2149   12.6418   22.4523 H   0  0  0  0  0  0  0  0  0  0  0  0
  -14.7895   13.1259   24.0782 H   0  0  0  0  0  0  0  0  0  0  0  0
  -15.4762   13.8907   22.6208 H   0  0  0  0  0  0  0  0  0  0  0  0
  -21.0958   15.8697   27.4842 H   0  0  0  0  0  0  0  0  0  0  0  0
  1  2  2  0  0  0  0
  1  4  1  0  0  0  0
  2  5  1  0  0  0  0
  3  5  2  0  0  0  0
  3  6  1  0  0  0  0
  4  6  2  0  0  0  0
  4 13  1  0  0  0  0
  5 16  1  0  0  0  0
  6 17  1  0  0  0  0
  7 13  2  0  0  0  0
  7 14  1  0  0  0  0
  7 17  1  0  0  0  0
  8 11  1  0  0  0  0
  8 14  1  0  0  0  0
  8 15  2  0  0  0  0
  9 10  1  0  0  0  0
  9 11  1  0  0  0  0
 10 11  1  0  0  0  0
 12 16  1  0  0  0  0
  1 18  1  0  0  0  0
  2 19  1  0  0  0  0
  3 20  1  0  0  0  0
  9 21  1  0  0  0  0
  9 22  1  0  0  0  0
 10 23  1  0  0  0  0
 10 24  1  0  0  0  0
 11 25  1  0  0  0  0
 12 26  1  0  0  0  0
 12 27  1  0  0  0  0
 12 28  1  0  0  0  0
 14 29  1  0  0  0  0
M  END
> <Chemgauss4>
-8.198806762695312

> <Chemgauss4>
-8.198807

$$$$
