F179
  -OEChem-12061915493D

 29 30  0     1  0  0  0  0  0999 V2000
  -19.2240   11.5426   24.2263 C   0  0  0  0  0  0  0  0  0  0  0  0
  -17.8981   12.7809   25.4686 C   0  0  0  0  0  0  0  0  0  0  0  0
  -17.9786   12.1989   24.2271 C   0  0  0  0  0  0  0  0  0  0  0  0
  -20.3605   14.9919   28.1487 C   0  0  0  0  0  0  0  0  0  0  0  0
  -19.1600   14.6727   29.0229 C   0  0  0  0  0  0  0  0  0  0  0  0
  -20.7478   13.6419   27.5556 C   0  0  0  0  0  0  0  0  0  0  0  0
  -18.3665   13.6860   28.1790 C   0  0  0  0  0  0  0  0  0  0  0  0
  -19.4347   12.8391   27.4667 C   0  0  0  0  0  0  0  0  0  0  0  0
  -16.9502   10.9810   22.2758 C   0  0  0  0  0  0  0  0  0  0  0  0
  -16.9838   12.2494   23.1440 C   0  0  2  0  0  0  0  0  0  0  0  0
  -19.8869   11.6929   25.3761 N   0  0  0  0  0  0  0  0  0  0  0  0
  -19.0549   12.4503   26.1110 N   0  0  0  0  0  0  0  0  0  0  0  0
  -15.6679   12.4271   23.6982 O   0  0  0  0  0  0  0  0  0  0  0  0
  -19.6779   10.9597   23.4374 H   0  0  0  0  0  0  0  0  0  0  0  0
  -17.1345   13.3860   25.9385 H   0  0  0  0  0  0  0  0  0  0  0  0
  -21.1790   15.4471   28.7136 H   0  0  0  0  0  0  0  0  0  0  0  0
  -20.0710   15.6833   27.3481 H   0  0  0  0  0  0  0  0  0  0  0  0
  -18.5781   15.5635   29.2755 H   0  0  0  0  0  0  0  0  0  0  0  0
  -19.4844   14.1988   29.9570 H   0  0  0  0  0  0  0  0  0  0  0  0
  -21.4334   13.1305   28.2425 H   0  0  0  0  0  0  0  0  0  0  0  0
  -21.2642   13.7552   26.5968 H   0  0  0  0  0  0  0  0  0  0  0  0
  -17.7417   14.2299   27.4594 H   0  0  0  0  0  0  0  0  0  0  0  0
  -17.7025   13.0696   28.7936 H   0  0  0  0  0  0  0  0  0  0  0  0
  -19.5655   11.8649   28.0074 H   0  0  0  0  0  0  0  0  0  0  0  0
  -16.8016   10.0907   22.8951 H   0  0  0  0  0  0  0  0  0  0  0  0
  -16.1395   11.0297   21.5400 H   0  0  0  0  0  0  0  0  0  0  0  0
  -17.8779   10.8589   21.7060 H   0  0  0  0  0  0  0  0  0  0  0  0
  -17.1363   13.1086   22.4566 H   0  0  0  0  0  0  0  0  0  0  0  0
  -15.0661   12.4520   22.9430 H   0  0  0  0  0  0  0  0  0  0  0  0
  1  3  1  0  0  0  0
  1 11  2  0  0  0  0
  2  3  2  0  0  0  0
  2 12  1  0  0  0  0
  3 10  1  0  0  0  0
  4  5  1  0  0  0  0
  4  6  1  0  0  0  0
  5  7  1  0  0  0  0
  6  8  1  0  0  0  0
  7  8  1  0  0  0  0
  8 12  1  0  0  0  0
  9 10  1  0  0  0  0
 10 13  1  0  0  0  0
 11 12  1  0  0  0  0
  1 14  1  0  0  0  0
  2 15  1  0  0  0  0
  4 16  1  0  0  0  0
  4 17  1  0  0  0  0
  5 18  1  0  0  0  0
  5 19  1  0  0  0  0
  6 20  1  0  0  0  0
  6 21  1  0  0  0  0
  7 22  1  0  0  0  0
  7 23  1  0  0  0  0
  8 24  1  0  0  0  0
  9 25  1  0  0  0  0
  9 26  1  0  0  0  0
  9 27  1  0  0  0  0
 10 28  1  0  0  0  0
 13 29  1  0  0  0  0
M  END
> <Chemgauss4>
-7.6280412673950195

> <Chemgauss4>
-7.628041

$$$$
