F710
  -OEChem-12061918463D

 30 31  0     0  0  0  0  0  0999 V2000
  -18.5443   13.1963   28.0421 C   0  0  0  0  0  0  0  0  0  0  0  0
  -20.5430   13.5868   26.7420 C   0  0  0  0  0  0  0  0  0  0  0  0
  -19.2597   13.4387   29.2147 C   0  0  0  0  0  0  0  0  0  0  0  0
  -21.2584   13.8292   27.9147 C   0  0  0  0  0  0  0  0  0  0  0  0
  -19.1860   13.2704   26.8057 C   0  0  0  0  0  0  0  0  0  0  0  0
  -20.6167   13.7551   29.1510 C   0  0  0  0  0  0  0  0  0  0  0  0
  -15.6998   12.1244   22.7030 C   0  0  0  0  0  0  0  0  0  0  0  0
  -17.3196   13.8992   25.3360 C   0  0  0  0  0  0  0  0  0  0  0  0
  -18.3906   11.6602   25.0959 C   0  0  0  0  0  0  0  0  0  0  0  0
  -17.0117   13.8860   23.8404 C   0  0  0  0  0  0  0  0  0  0  0  0
  -18.0580   11.6858   23.6035 C   0  0  0  0  0  0  0  0  0  0  0  0
  -18.4681   13.0272   25.6290 N   0  0  0  0  0  0  0  0  0  0  0  0
  -16.8750   12.5148   23.3515 N   0  0  0  0  0  0  0  0  0  0  0  0
  -15.0267   13.1016   22.0024 N   0  0  0  0  0  0  0  0  0  0  0  0
  -15.2559   10.9720   22.7316 O   0  0  0  0  0  0  0  0  0  0  0  0
  -21.3037   13.9879   30.2771 F   0  0  0  0  0  0  0  0  0  0  0  0
  -17.4873   12.9503   28.1033 H   0  0  0  0  0  0  0  0  0  0  0  0
  -21.0529   13.6475   25.7840 H   0  0  0  0  0  0  0  0  0  0  0  0
  -18.7606   13.3810   30.1775 H   0  0  0  0  0  0  0  0  0  0  0  0
  -22.3149   14.0758   27.8657 H   0  0  0  0  0  0  0  0  0  0  0  0
  -16.4537   13.5513   25.9072 H   0  0  0  0  0  0  0  0  0  0  0  0
  -17.5261   14.9288   25.6455 H   0  0  0  0  0  0  0  0  0  0  0  0
  -19.3443   11.1466   25.2580 H   0  0  0  0  0  0  0  0  0  0  0  0
  -17.6146   11.0978   25.6247 H   0  0  0  0  0  0  0  0  0  0  0  0
  -17.8167   14.3601   23.2723 H   0  0  0  0  0  0  0  0  0  0  0  0
  -16.0956   14.4473   23.6457 H   0  0  0  0  0  0  0  0  0  0  0  0
  -17.8392   10.6850   23.2429 H   0  0  0  0  0  0  0  0  0  0  0  0
  -18.9035   12.0857   23.0544 H   0  0  0  0  0  0  0  0  0  0  0  0
  -15.3718   14.0559   21.9928 H   0  0  0  0  0  0  0  0  0  0  0  0
  -14.1520   12.9410   21.5171 H   0  0  0  0  0  0  0  0  0  0  0  0
  1  3  2  0  0  0  0
  1  5  1  0  0  0  0
  2  4  1  0  0  0  0
  2  5  2  0  0  0  0
  3  6  1  0  0  0  0
  4  6  2  0  0  0  0
  5 12  1  0  0  0  0
  6 16  1  0  0  0  0
  7 13  1  0  0  0  0
  7 14  1  0  0  0  0
  7 15  2  0  0  0  0
  8 10  1  0  0  0  0
  8 12  1  0  0  0  0
  9 11  1  0  0  0  0
  9 12  1  0  0  0  0
 10 13  1  0  0  0  0
 11 13  1  0  0  0  0
  1 17  1  0  0  0  0
  2 18  1  0  0  0  0
  3 19  1  0  0  0  0
  4 20  1  0  0  0  0
  8 21  1  0  0  0  0
  8 22  1  0  0  0  0
  9 23  1  0  0  0  0
  9 24  1  0  0  0  0
 10 25  1  0  0  0  0
 10 26  1  0  0  0  0
 11 27  1  0  0  0  0
 11 28  1  0  0  0  0
 14 29  1  0  0  0  0
 14 30  1  0  0  0  0
M  END
> <Chemgauss4>
-7.98649787902832

> <Chemgauss4>
-7.986498

$$$$
