F558
  -OEChem-12061918063D

 32 33  0     0  0  0  0  0  0999 V2000
  -19.5378   14.3128   28.8283 C   0  0  0  0  0  0  0  0  0  0  0  0
  -17.4793   13.0480   28.8410 C   0  0  0  0  0  0  0  0  0  0  0  0
  -19.7534   13.9753   30.1644 C   0  0  0  0  0  0  0  0  0  0  0  0
  -17.6948   12.7106   30.1772 C   0  0  0  0  0  0  0  0  0  0  0  0
  -20.3375   13.7214   25.5503 C   0  0  0  0  0  0  0  0  0  0  0  0
  -18.4263   12.3444   25.0648 C   0  0  0  0  0  0  0  0  0  0  0  0
  -21.0524   12.9547   24.6443 C   0  0  0  0  0  0  0  0  0  0  0  0
  -19.2269   11.6392   24.1807 C   0  0  0  0  0  0  0  0  0  0  0  0
  -18.4007   13.8491   28.1666 C   0  0  0  0  0  0  0  0  0  0  0  0
  -18.9999   13.4039   25.7588 C   0  0  0  0  0  0  0  0  0  0  0  0
  -18.8319   13.1743   30.8389 C   0  0  0  0  0  0  0  0  0  0  0  0
  -20.1085   13.1964   33.0024 C   0  0  0  0  0  0  0  0  0  0  0  0
  -20.9368   12.9280   35.2140 C   0  0  0  0  0  0  0  0  0  0  0  0
  -18.1704   14.2099   26.7380 C   0  0  0  0  0  0  0  0  0  0  0  0
  -20.5298   11.9181   23.9517 N   0  0  0  0  0  0  0  0  0  0  0  0
  -19.0471   12.8368   32.1754 N   0  0  0  0  0  0  0  0  0  0  0  0
  -21.0733   13.8914   32.7078 O   0  0  0  0  0  0  0  0  0  0  0  0
  -19.9222   12.6468   34.2428 O   0  0  0  0  0  0  0  0  0  0  0  0
  -20.2621   14.9356   28.3100 H   0  0  0  0  0  0  0  0  0  0  0  0
  -16.5910   12.6818   28.3330 H   0  0  0  0  0  0  0  0  0  0  0  0
  -20.6428   14.3426   30.6704 H   0  0  0  0  0  0  0  0  0  0  0  0
  -16.9708   12.0848   30.6929 H   0  0  0  0  0  0  0  0  0  0  0  0
  -20.8142   14.5424   26.0752 H   0  0  0  0  0  0  0  0  0  0  0  0
  -17.3860   12.0723   25.2060 H   0  0  0  0  0  0  0  0  0  0  0  0
  -22.0987   13.1624   24.4450 H   0  0  0  0  0  0  0  0  0  0  0  0
  -18.8271   10.8040   23.6151 H   0  0  0  0  0  0  0  0  0  0  0  0
  -20.6830   12.4409   36.1587 H   0  0  0  0  0  0  0  0  0  0  0  0
  -21.9010   12.5632   34.8511 H   0  0  0  0  0  0  0  0  0  0  0  0
  -20.9924   14.0084   35.3673 H   0  0  0  0  0  0  0  0  0  0  0  0
  -18.3679   15.2839   26.5736 H   0  0  0  0  0  0  0  0  0  0  0  0
  -17.1030   14.0981   26.4777 H   0  0  0  0  0  0  0  0  0  0  0  0
  -18.3285   12.2456   32.6059 H   0  0  0  0  0  0  0  0  0  0  0  0
  1  3  2  0  0  0  0
  1  9  1  0  0  0  0
  2  4  1  0  0  0  0
  2  9  2  0  0  0  0
  3 11  1  0  0  0  0
  4 11  2  0  0  0  0
  5  7  2  0  0  0  0
  5 10  1  0  0  0  0
  6  8  1  0  0  0  0
  6 10  2  0  0  0  0
  7 15  1  0  0  0  0
  8 15  2  0  0  0  0
  9 14  1  0  0  0  0
 10 14  1  0  0  0  0
 11 16  1  0  0  0  0
 12 16  1  0  0  0  0
 12 17  2  0  0  0  0
 12 18  1  0  0  0  0
 13 18  1  0  0  0  0
  1 19  1  0  0  0  0
  2 20  1  0  0  0  0
  3 21  1  0  0  0  0
  4 22  1  0  0  0  0
  5 23  1  0  0  0  0
  6 24  1  0  0  0  0
  7 25  1  0  0  0  0
  8 26  1  0  0  0  0
 13 27  1  0  0  0  0
 13 28  1  0  0  0  0
 13 29  1  0  0  0  0
 14 30  1  0  0  0  0
 14 31  1  0  0  0  0
 16 32  1  0  0  0  0
M  END
> <Chemgauss4>
-8.125021934509277

> <Chemgauss4>
-8.125022

$$$$
