@<TRIPOS>MOLECULE
MGLab9_renumber_old.pdb
156 163 7 0 0
SMALL
NO_CHARGES


@<TRIPOS>ATOM
      1 C1         25.1890  110.7610   34.0070 C.3       1 MGO    0.0000
      2 O1         24.4510  110.7620   35.2640 O.3       1 MGO    0.0000
      3 C2         25.4240  109.3060   33.5450 C.3       1 MGO    0.0000
      4 O2         24.1580  108.6960   33.3910 O.3       1 MGO    0.0000
      5 C3         26.2810  108.5560   34.5790 C.3       1 MGO    0.0000
      6 O3         26.5430  107.2470   34.1120 O.3       1 MGO    0.0000
      7 C4         27.6150  109.2890   34.7930 C.3       1 MGO    0.0000
      8 C5         27.3470  110.7390   35.2460 C.3       1 MGO    0.0000
      9 O5         26.4840  111.3740   34.2530 O.3       1 MGO    0.0000
     10 C6         28.6020  111.6160   35.3650 C.3       1 MGO    0.0000
     11 O6         29.3320  111.6580   34.1560 O.3       1 MGO    0.0000
     12 H1         24.6300  111.3020   33.2440 H         1 MGO    0.0000
     13 H2         25.9630  109.2810   32.5980 H         1 MGO    0.0000
     14 H3         23.7120  108.7350   34.2400 H         1 MGO    0.0000
     15 H4         25.7380  108.5130   35.5230 H         1 MGO    0.0000
     16 H5         27.0200  107.3250   33.2820 H         1 MGO    0.0000
     17 H6         28.2000  109.3080   33.8730 H         1 MGO    0.0000
     18 H7         26.9030  110.6660   36.2390 H         1 MGO    0.0000
     19 H8         28.7530  112.0170   33.4800 H         1 MGO    0.0000
     20 H91        28.3000  112.6290   35.6300 H         1 MGO    0.0000
     21 H92        29.2420  111.2110   36.1490 H         1 MGO    0.0000
     22 C1         21.4000  112.9670   37.1830 C.3       2 MGO    0.0000
     23 O1         21.4750  112.0480   38.3140 O.3       2 MGO    0.0000
     24 C2         21.0140  112.1850   35.9080 C.3       2 MGO    0.0000
     25 O2         19.7620  111.5740   36.1440 O.3       2 MGO    0.0000
     26 C3         22.0930  111.1360   35.5810 C.3       2 MGO    0.0000
     27 O3         21.7630  110.4950   34.3650 O.3       2 MGO    0.0000
     28 C4         23.4660  111.8140   35.4350 C.3       2 MGO    0.0000
     29 C5         23.8110  112.5950   36.7180 C.3       2 MGO    0.0000
     30 O5         22.7240  113.5310   36.9790 O.3       2 MGO    0.0000
     31 C6         25.1010  113.4220   36.6200 C.3       2 MGO    0.0000
     32 O6         25.0740  114.3210   35.5300 O.3       2 MGO    0.0000
     33 H1         20.6610  113.7430   37.3810 H         2 MGO    0.0000
     34 H2         20.9430  112.8530   35.0500 H         2 MGO    0.0000
     35 H3         19.8600  110.9950   36.9030 H         2 MGO    0.0000
     36 H4         22.1380  110.4070   36.3900 H         2 MGO    0.0000
     37 H5         21.7330  111.1680   33.6810 H         2 MGO    0.0000
     38 H6         23.4560  112.5020   34.5900 H         2 MGO    0.0000
     39 H7         23.9530  111.8550   37.5060 H         2 MGO    0.0000
     40 H8         24.3260  114.9090   35.6570 H         2 MGO    0.0000
     41 H91        25.2250  113.9910   37.5420 H         2 MGO    0.0000
     42 H92        25.9450  112.7440   36.4950 H         2 MGO    0.0000
     43 C1         20.5820  112.0180   42.4510 C.3       3 MGO    0.0000
     44 O1         21.3500  110.7880   42.5940 O.3       3 MGO    0.0000
     45 C2         19.4120  111.7850   41.4680 C.3       3 MGO    0.0000
     46 O2         18.6110  110.7480   41.9980 O.3       3 MGO    0.0000
     47 C3         19.9570  111.4170   40.0750 C.3       3 MGO    0.0000
     48 O3         18.8770  111.2950   39.1710 O.3       3 MGO    0.0000
     49 C4         20.9130  112.5120   39.5710 C.3       3 MGO    0.0000
     50 C5         22.0610  112.7080   40.5820 C.3       3 MGO    0.0000
     51 O5         21.4610  113.0200   41.8720 O.3       3 MGO    0.0000
     52 C6         23.0220  113.8580   40.2510 C.3       3 MGO    0.0000
     53 O6         22.3400  115.0790   40.0480 O.3       3 MGO    0.0000
     54 H1         20.1940  112.3340   43.4190 H         3 MGO    0.0000
     55 H2         18.8140  112.6890   41.3510 H         3 MGO    0.0000
     56 H3         19.1660  109.9700   42.0880 H         3 MGO    0.0000
     57 H4         20.4990  110.4740   40.1430 H         3 MGO    0.0000
     58 H5         18.4280  112.1430   39.1390 H         3 MGO    0.0000
     59 H6         20.3810  113.4550   39.4480 H         3 MGO    0.0000
     60 H7         22.6450  111.7870   40.5660 H         3 MGO    0.0000
     61 H8         21.8630  115.2830   40.8560 H         3 MGO    0.0000
     62 H91        23.7220  113.9800   41.0770 H         3 MGO    0.0000
     63 H92        23.5710  113.6070   39.3430 H         3 MGO    0.0000
     64 C1         23.1670  108.5890   45.7260 C.3       4 MGO    0.0000
     65 O1         24.1960  108.1170   44.8130 O.3       4 MGO    0.0000
     66 C2         21.7800  108.1250   45.2290 C.3       4 MGO    0.0000
     67 O2         21.8050  106.7130   45.1520 O.3       4 MGO    0.0000
     68 C3         21.4690  108.7500   43.8580 C.3       4 MGO    0.0000
     69 O3         20.1660  108.3750   43.4570 O.3       4 MGO    0.0000
     70 C4         21.5470  110.2830   43.9420 C.3       4 MGO    0.0000
     71 C5         22.9490  110.7010   44.4290 C.3       4 MGO    0.0000
     72 O5         23.1970  110.0420   45.7080 O.3       4 MGO    0.0000
     73 C6         23.1340  112.2060   44.6700 C.3       4 MGO    0.0000
     74 O6         22.1550  112.7260   45.5460 O.3       4 MGO    0.0000
     75 H1         23.3440  108.1990   46.7280 H         4 MGO    0.0000
     76 H2         20.9960  108.4460   45.9150 H         4 MGO    0.0000
     77 H3         22.5050  106.4680   44.5420 H         4 MGO    0.0000
     78 H4         22.2010  108.3930   43.1330 H         4 MGO    0.0000
     79 H5         19.5530  108.7050   44.1170 H         4 MGO    0.0000
     80 H6         20.7990  110.6750   44.6320 H         4 MGO    0.0000
     81 H7         23.6360  110.4150   43.6330 H         4 MGO    0.0000
     82 H8         22.2320  112.2560   46.3800 H         4 MGO    0.0000
     83 H91        24.1200  112.3740   45.1040 H         4 MGO    0.0000
     84 H92        23.0640  112.7270   43.7150 H         4 MGO    0.0000
     85 C1         28.0800  106.4940   44.8870 C.3       5 MGO    0.0000
     86 O1         27.9110  106.1820   43.4710 O.3       5 MGO    0.0000
     87 C2         27.0040  105.7580   45.7120 C.3       5 MGO    0.0000
     88 O2         27.1910  104.3720   45.5100 O.3       5 MGO    0.0000
     89 C3         25.6020  106.2210   45.2710 C.3       5 MGO    0.0000
     90 O3         24.6270  105.5870   46.0740 O.3       5 MGO    0.0000
     91 C4         25.4670  107.7470   45.4070 C.3       5 MGO    0.0000
     92 C5         26.5810  108.4550   44.6110 C.3       5 MGO    0.0000
     93 O5         27.8620  107.9220   45.0540 O.3       5 MGO    0.0000
     94 C6         26.6270  109.9740   44.8300 C.3       5 MGO    0.0000
     95 O6         26.7710  110.3110   46.1950 O.3       5 MGO    0.0000
     96 H1         29.0740  106.1930   45.2180 H         5 MGO    0.0000
     97 H2         27.0920  105.9820   46.7750 H         5 MGO    0.0000
     98 H3         27.1080  104.2020   44.5690 H         5 MGO    0.0000
     99 H4         25.4550  105.9510   44.2250 H         5 MGO    0.0000
    100 H5         24.7870  105.8470   46.9840 H         5 MGO    0.0000
    101 H6         25.5350  108.0340   46.4560 H         5 MGO    0.0000
    102 H7         26.3760  108.2750   43.5560 H         5 MGO    0.0000
    103 H8         27.5900  109.9180   46.5060 H         5 MGO    0.0000
    104 H91        27.4720  110.3830   44.2760 H         5 MGO    0.0000
    105 H92        25.7010  110.4110   44.4560 H         5 MGO    0.0000
    106 C1         30.4560  105.4520   40.1660 C.3       6 UNK    0.0000
    107 O1         29.6080  106.3150   39.3590 O.3       6 UNK    0.0000
    108 C2         29.6230  104.2740   40.7060 C.3       6 UNK    0.0000
    109 O2         29.1400  103.5490   39.5920 O.3       6 UNK    0.0000
    110 C3         28.4800  104.8180   41.5810 C.3       6 UNK    0.0000
    111 C4         29.0530  105.6250   42.7610 C.3       6 UNK    0.0000
    112 C5         29.9120  106.7830   42.2030 C.3       6 UNK    0.0000
    113 O5         30.9210  106.2250   41.3030 O.3       6 UNK    0.0000
    114 C6         30.6910  107.6000   43.2450 C.3       6 UNK    0.0000
    115 O6         31.5000  106.7770   44.0600 O.3       6 UNK    0.0000
    116 O7         26.1650  103.7490   40.3670 O.2       6 UNK    0.0000
    117 C7         25.1980  103.6050   42.5340 C.2       6 UNK    0.0000
    118 C12        24.8700  102.1020   42.6300 C.2       6 UNK    0.0000
    119 C13        25.6420  101.3600   41.5290 C.2       6 UNK    0.0000
    120 O8         26.6880  101.8110   41.0580 O.co2     6 UNK    0.0000
    121 O9         25.1360  100.1180   41.0390 O.co2     6 UNK    0.0000
    122 NQ         27.7460  103.6660   42.1150 N.3       6 UNK    0.0000
    123 H1         31.2870  105.0780   39.5670 H         6 UNK    0.0000
    124 H2         30.2190  103.6100   41.3310 H         6 UNK    0.0000
    125 H3         28.6190  104.1520   39.0570 H         6 UNK    0.0000
    126 H4         27.8330  105.4660   40.9890 H         6 UNK    0.0000
    127 H6         29.6670  105.0040   43.4140 H         6 UNK    0.0000
    128 H7         29.1950  107.4530   41.7290 H         6 UNK    0.0000
    129 H8         32.1170  106.3170   43.4860 H         6 UNK    0.0000
    130 H91        31.3270  108.3180   42.7270 H         6 UNK    0.0000
    131 H92        29.9810  108.1340   43.8770 H         6 UNK    0.0000
    132 HQ         26.3440  103.7270   41.5540 C.2       6 UNK    0.0000
    133 HQ2        27.7170  103.7120   43.1240 H         6 UNK    0.0000
    134 H10        24.7080  104.4100   43.0610 H         6 UNK    0.0000
    135 H11        24.2080  101.6470   43.3510 H         6 UNK    0.0000
    136 C1         29.7540  108.5030   35.7730 C.3       7 MGO    0.0000
    137 O1         28.3030  108.5910   35.8600 O.3       7 MGO    0.0000
    138 C2         30.1740  107.0190   35.6950 C.3       7 MGO    0.0000
    139 O2         29.6020  106.4760   34.5220 O.3       7 MGO    0.0000
    140 C3         29.6910  106.2740   36.9530 C.3       7 MGO    0.0000
    141 O3         30.1520  104.9380   36.9060 O.3       7 MGO    0.0000
    142 C4         30.2390  106.9540   38.2200 C.3       7 MGO    0.0000
    143 C5         29.8600  108.4480   38.2510 C.3       7 MGO    0.0000
    144 O5         30.2980  109.0550   37.0010 O.3       7 MGO    0.0000
    145 C6         30.5310  109.2320   39.3890 C.3       7 MGO    0.0000
    146 O6         31.9400  109.1360   39.3430 O.3       7 MGO    0.0000
    147 H1         30.1140  109.0380   34.8940 H         7 MGO    0.0000
    148 H2         31.2580  106.9170   35.6540 H         7 MGO    0.0000
    149 H3         28.6500  106.5800   34.5880 H         7 MGO    0.0000
    150 H4         28.6020  106.2950   36.9820 H         7 MGO    0.0000
    151 H5         31.1110  104.9630   36.8810 H         7 MGO    0.0000
    152 H6         31.3250  106.8630   38.2390 H         7 MGO    0.0000
    153 H7         28.7810  108.4940   38.4020 H         7 MGO    0.0000
    154 H8         32.2280  109.4900   38.4980 H         7 MGO    0.0000
    155 H91        30.2480  110.2810   39.3070 H         7 MGO    0.0000
    156 H92        30.1830  108.8350   40.3420 H         7 MGO    0.0000
@<TRIPOS>BOND
     1    1    2 1
     2    1    3 1
     3    1    9 1
     4    1   12 1
     5    2   28 1
     6    3    4 1
     7    3    5 1
     8    3   13 1
     9    4   14 1
    10    5    6 1
    11    5    7 1
    12    5   15 1
    13    6   16 1
    14    7    8 1
    15    7   17 1
    16    7  137 1
    17    8    9 1
    18    8   10 1
    19    8   18 1
    20   10   11 1
    21   10   20 1
    22   10   21 1
    23   11   19 1
    24   22   23 1
    25   22   24 1
    26   22   30 1
    27   22   33 1
    28   23   49 1
    29   24   25 1
    30   24   26 1
    31   24   34 1
    32   25   35 1
    33   26   27 1
    34   26   28 1
    35   26   36 1
    36   27   37 1
    37   28   29 1
    38   28   38 1
    39   29   30 1
    40   29   31 1
    41   29   39 1
    42   31   32 1
    43   31   41 1
    44   31   42 1
    45   32   40 1
    46   43   44 1
    47   43   45 1
    48   43   51 1
    49   43   54 1
    50   44   70 1
    51   45   46 1
    52   45   47 1
    53   45   55 1
    54   46   56 1
    55   47   48 1
    56   47   49 1
    57   47   57 1
    58   48   58 1
    59   49   50 1
    60   49   59 1
    61   50   51 1
    62   50   52 1
    63   50   60 1
    64   52   53 1
    65   52   62 1
    66   52   63 1
    67   53   61 1
    68   64   65 1
    69   64   66 1
    70   64   72 1
    71   64   75 1
    72   65   91 1
    73   66   67 1
    74   66   68 1
    75   66   76 1
    76   67   77 1
    77   68   69 1
    78   68   70 1
    79   68   78 1
    80   69   79 1
    81   70   71 1
    82   70   80 1
    83   71   72 1
    84   71   73 1
    85   71   81 1
    86   73   74 1
    87   73   83 1
    88   73   84 1
    89   74   82 1
    90   85   86 1
    91   85   87 1
    92   85   93 1
    93   85   96 1
    94   86  111 1
    95   87   88 1
    96   87   89 1
    97   87   97 1
    98   88   98 1
    99   89   90 1
   100   89   91 1
   101   89   99 1
   102   90  100 1
   103   91   92 1
   104   91  101 1
   105   92   93 1
   106   92   94 1
   107   92  102 1
   108   94   95 1
   109   94  104 1
   110   94  105 1
   111   95  103 1
   112  106  107 1
   113  106  108 1
   114  106  113 1
   115  106  123 1
   116  107  142 1
   117  108  109 1
   118  108  110 1
   119  108  124 1
   120  109  125 1
   121  110  111 1
   122  110  122 1
   123  110  126 1
   124  111  112 1
   125  111  127 1
   126  112  113 1
   127  112  114 1
   128  112  128 1
   129  114  115 1
   130  114  130 1
   131  114  131 1
   132  115  129 1
   133  122  132 1
   134  122  133 1
   135  132  116 2
   136  132  117 2
   137  117  118 2
   138  117  134 1
   139  118  119 2
   140  118  135 1
   141  119  120 2
   142  119  121 2
   143  136  137 1
   144  136  138 1
   145  136  144 1
   146  136  147 1
   147  138  139 1
   148  138  140 1
   149  138  148 1
   150  139  149 1
   151  140  141 1
   152  140  142 1
   153  140  150 1
   154  141  151 1
   155  142  143 1
   156  142  152 1
   157  143  144 1
   158  143  145 1
   159  143  153 1
   160  145  146 1
   161  145  155 1
   162  145  156 1
   163  146  154 1
@<TRIPOS>SUBSTRUCTURE
     1 MGO     1 RESIDUE           4 A     MGO     2 ROOT
     2 MGO    22 RESIDUE           4 A     MGO     2
     3 MGO    43 RESIDUE           4 A     MGO     2
     4 MGO    64 RESIDUE           4 A     MGO     2
     5 MGO    85 RESIDUE           4 A     MGO     2
     6 UNK   106 RESIDUE           4 A     UNK     2
     7 MGO   136 RESIDUE           4 A     MGO     2
