@<TRIPOS>MOLECULE
MGLab24.pdb
181 188 7 0 0
SMALL
NO_CHARGES


@<TRIPOS>ATOM
      1 C1         25.5930  110.5680   34.0460 C.3       1 MGO    0.0000
      2 O1         24.6090  110.5060   35.1220 O.3       1 MGO    0.0000
      3 C2         25.6400  109.2120   33.3050 C.3       1 MGO    0.0000
      4 O2         24.3460  108.9600   32.7940 O.3       1 MGO    0.0000
      5 C3         26.0910  108.0970   34.2650 C.3       1 MGO    0.0000
      6 O3         26.2050  106.8840   33.5480 O.3       1 MGO    0.0000
      7 C4         27.4560  108.4500   34.8810 C.3       1 MGO    0.0000
      8 C5         27.3660  109.8060   35.6090 C.3       1 MGO    0.0000
      9 O5         26.8960  110.7950   34.6480 O.3       1 MGO    0.0000
     10 C6         28.7030  110.3210   36.1590 C.3       1 MGO    0.0000
     11 O6         29.6920  110.4090   35.1540 O.3       1 MGO    0.0000
     12 H1         25.3310  111.3620   33.3470 H         1 MGO    0.0000
     13 H2         26.3590  109.2410   32.4870 H         1 MGO    0.0000
     14 H2         23.7390  108.9420   33.5370 H         1 MGO    0.0000
     15 H3         25.3550  107.9920   35.0630 H         1 MGO    0.0000
     16 H3         26.8590  107.0160   32.8580 H         1 MGO    0.0000
     17 H4         28.2180  108.5130   34.1040 H         1 MGO    0.0000
     18 H5         26.6990  109.6570   36.4590 H         1 MGO    0.0000
     19 H61        28.5490  111.3100   36.5890 H         1 MGO    0.0000
     20 H62        29.0510  109.6380   36.9350 H         1 MGO    0.0000
     21 H6         29.3690  111.0130   34.4810 H         1 MGO    0.0000
     22 C1         21.6670  113.0530   36.8170 C.3       2 MGO    0.0000
     23 O1         21.6690  112.2670   38.0460 O.3       2 MGO    0.0000
     24 C2         21.2490  112.1530   35.6320 C.3       2 MGO    0.0000
     25 O2         19.9640  111.6390   35.9190 O.3       2 MGO    0.0000
     26 C3         22.2740  111.0210   35.4360 C.3       2 MGO    0.0000
     27 O3         21.9140  110.2550   34.3040 O.3       2 MGO    0.0000
     28 C4         23.6760  111.6160   35.2200 C.3       2 MGO    0.0000
     29 C5         24.0550  112.4850   36.4360 C.3       2 MGO    0.0000
     30 O5         23.0270  113.5090   36.5790 O.3       2 MGO    0.0000
     31 C6         25.3990  113.2170   36.3170 C.3       2 MGO    0.0000
     32 O6         25.4870  113.9730   35.1270 O.3       2 MGO    0.0000
     33 H1         20.9750  113.8900   36.9080 H         2 MGO    0.0000
     34 H2         21.2190  112.7230   34.7030 H         2 MGO    0.0000
     35 H2         20.0260  111.1450   36.7400 H         2 MGO    0.0000
     36 H3         22.2850  110.3890   36.3240 H         2 MGO    0.0000
     37 H3         21.9150  110.8420   33.5440 H         2 MGO    0.0000
     38 H4         23.7020  112.2300   34.3190 H         2 MGO    0.0000
     39 H5         24.1380  111.8050   37.2840 H         2 MGO    0.0000
     40 H61        25.5110  113.8870   37.1690 H         2 MGO    0.0000
     41 H62        26.2030  112.4810   36.3260 H         2 MGO    0.0000
     42 H6         24.7720  114.6150   35.1380 H         2 MGO    0.0000
     43 C1         20.7220  112.7570   42.1370 C.3       3 MGO    0.0000
     44 O1         21.4680  111.5390   42.4240 O.3       3 MGO    0.0000
     45 C2         19.5590  112.4310   41.1740 C.3       3 MGO    0.0000
     46 O2         18.7320  111.4790   41.8140 O.3       3 MGO    0.0000
     47 C3         20.1120  111.8890   39.8430 C.3       3 MGO    0.0000
     48 O3         19.0410  111.6810   38.9450 O.3       3 MGO    0.0000
     49 C4         21.0990  112.8950   39.2250 C.3       3 MGO    0.0000
     50 C5         22.2360  113.1970   40.2220 C.3       3 MGO    0.0000
     51 O5         21.6240  113.6700   41.4550 O.3       3 MGO    0.0000
     52 C6         23.2190  114.2860   39.7690 C.3       3 MGO    0.0000
     53 O6         22.5590  115.4770   39.3940 O.3       3 MGO    0.0000
     54 H1         20.3320  113.1870   43.0590 H         3 MGO    0.0000
     55 H2         18.9800  113.3250   40.9430 H         3 MGO    0.0000
     56 H2         19.2710  110.7070   42.0030 H         3 MGO    0.0000
     57 H3         20.6330  110.9500   40.0320 H         3 MGO    0.0000
     58 H3         18.6100  112.5270   38.8050 H         3 MGO    0.0000
     59 H4         20.5880  113.8260   38.9770 H         3 MGO    0.0000
     60 H5         22.8050  112.2740   40.3250 H         3 MGO    0.0000
     61 H61        23.9020  114.5060   40.5900 H         3 MGO    0.0000
     62 H62        23.7860  113.9140   38.9150 H         3 MGO    0.0000
     63 H6         22.0660  115.7880   40.1570 H         3 MGO    0.0000
     64 C1         23.2530  109.6780   45.7710 C.3       4 MGO    0.0000
     65 O1         24.3190  109.1930   44.9110 O.3       4 MGO    0.0000
     66 C2         21.9000  109.1170   45.2780 C.3       4 MGO    0.0000
     67 O2         21.9900  107.7060   45.3080 O.3       4 MGO    0.0000
     68 C3         21.6050  109.6240   43.8550 C.3       4 MGO    0.0000
     69 O3         20.3300  109.1670   43.4470 O.3       4 MGO    0.0000
     70 C4         21.6200  111.1610   43.8170 C.3       4 MGO    0.0000
     71 C5         22.9800  111.6830   44.3240 C.3       4 MGO    0.0000
     72 O5         23.2160  111.1250   45.6530 O.3       4 MGO    0.0000
     73 C6         23.0810  113.2090   44.4720 C.3       4 MGO    0.0000
     74 O6         22.0510  113.7290   45.2870 O.3       4 MGO    0.0000
     75 H1         23.4260  109.3660   46.8010 H         4 MGO    0.0000
     76 H2         21.0830  109.4510   45.9160 H         4 MGO    0.0000
     77 H2         22.7170  107.4480   44.7370 H         4 MGO    0.0000
     78 H3         22.3740  109.2430   43.1830 H         4 MGO    0.0000
     79 H3         19.6840  109.5230   44.0620 H         4 MGO    0.0000
     80 H4         20.8290  111.5760   44.4420 H         4 MGO    0.0000
     81 H5         23.7080  111.3810   43.5720 H         4 MGO    0.0000
     82 H61        24.0440  113.4560   44.9190 H         4 MGO    0.0000
     83 H62        23.0120  113.6630   43.4840 H         4 MGO    0.0000
     84 H6         22.1290  113.3180   46.1510 H         4 MGO    0.0000
     85 C1         28.1920  107.6500   45.0800 C.3       5 MGO    0.0000
     86 O1         27.8650  107.1330   43.7580 O.3       5 MGO    0.0000
     87 C2         27.1990  107.0860   46.1190 C.3       5 MGO    0.0000
     88 O2         27.4000  105.6890   46.1920 O.3       5 MGO    0.0000
     89 C3         25.7620  107.4370   45.6950 C.3       5 MGO    0.0000
     90 O3         24.8590  106.9740   46.6800 O.3       5 MGO    0.0000
     91 C4         25.6060  108.9620   45.5370 C.3       5 MGO    0.0000
     92 C5         26.6810  109.5560   44.6020 C.3       5 MGO    0.0000
     93 O5         27.9940  109.0860   45.0340 O.3       5 MGO    0.0000
     94 C6         26.7260  111.0920   44.6200 C.3       5 MGO    0.0000
     95 O6         26.9730  111.6020   45.9150 O.3       5 MGO    0.0000
     96 H1         29.2110  107.3750   45.3510 H         5 MGO    0.0000
     97 H2         27.3630  107.5200   47.1050 H         5 MGO    0.0000
     98 H2         27.2510  105.3280   45.3150 H         5 MGO    0.0000
     99 H3         25.5480  106.9600   44.7390 H         5 MGO    0.0000
    100 H3         25.0780  107.4140   47.5040 H         5 MGO    0.0000
    101 H4         25.7010  109.4280   46.5180 H         5 MGO    0.0000
    102 H5         26.4240  109.2340   43.5930 H         5 MGO    0.0000
    103 H61        27.5190  111.4280   43.9530 H         5 MGO    0.0000
    104 H62        25.7680  111.4750   44.2680 H         5 MGO    0.0000
    105 H6         27.8180  111.2540   46.2070 H         5 MGO    0.0000
    106 C1         29.6160  104.8160   40.7150 C.3       6 UNK    0.0000
    107 O1         28.8890  105.6230   39.7440 O.3       6 UNK    0.0000
    108 C2         28.6090  104.1100   41.6510 C.3       6 UNK    0.0000
    109 O2         27.7760  103.3000   40.8440 O.3       6 UNK    0.0000
    110 C3         27.7870  105.1590   42.4180 C.3       6 UNK    0.0000
    111 C4         28.7130  106.0990   43.2070 C.3       6 UNK    0.0000
    112 C5         29.7250  106.7670   42.2570 C.3       6 UNK    0.0000
    113 O5         30.4260  105.7180   41.5210 O.3       6 UNK    0.0000
    114 C6         30.7940  107.6100   42.9670 C.3       6 UNK    0.0000
    115 O6         31.5360  106.8450   43.8960 O.3       6 UNK    0.0000
    116 NQ         26.8820  104.4950   43.3510 N.am      6 UNK    0.0000
    117 HQ         25.5440  104.4990   43.2630 C.2       6 UNK    0.0000
    118 C1         24.7870  103.7900   44.3870 C.3       6 UNK    0.0000
    119 C12        25.0080  102.2690   44.3530 C.3       6 UNK    0.0000
    120 C123       24.2410  101.5050   45.4460 C.2       6 UNK    0.0000
    121 N123       24.3650  100.1680   45.5240 N.am      6 UNK    0.0000
    122 C122       25.1830   99.3110   44.6720 C.3       6 UNK    0.0000
    123 C122       24.3510   98.7620   43.5070 C.3       6 UNK    0.0000
    124 C123       25.2050   97.8400   42.6280 C.3       6 UNK    0.0000
    125 C122       24.3830   97.2740   41.4600 C.3       6 UNK    0.0000
    126 C123       25.1940   96.2860   40.6030 C.3       6 UNK    0.0000
    127 C121       26.3930   96.9620   39.9320 C.2       6 UNK    0.0000
    128 O121       26.1700   97.9260   38.9910 O.3       6 UNK    0.0000
    129 N122       25.6440   95.1500   41.4270 N.4       6 UNK    0.0000
    130 O          24.9200  105.0330   42.3460 O.2       6 UNK    0.0000
    131 O          23.5180  102.1100   46.2370 O.2       6 UNK    0.0000
    132 O          27.5440   96.6500   40.2340 O.2       6 UNK    0.0000
    133 H1         30.2310  104.0740   40.2060 H         6 UNK    0.0000
    134 H2         29.1220  103.4930   42.3880 H         6 UNK    0.0000
    135 H2         27.3410  103.8730   40.2090 H         6 UNK    0.0000
    136 H3         27.2140  105.7410   41.6960 H         6 UNK    0.0000
    137 H4         29.2580  105.5490   43.9740 H         6 UNK    0.0000
    138 H5         29.1490  107.4360   41.6170 H         6 UNK    0.0000
    139 H61        31.4760  108.0170   42.2210 H         6 UNK    0.0000
    140 H62        30.3040  108.4280   43.4960 H         6 UNK    0.0000
    141 H6         31.9580  106.1320   43.4120 H         6 UNK    0.0000
    142 HQ         27.2970  103.9930   44.1230 H         6 UNK    0.0000
    143 H11        23.7220  103.9930   44.2790 H         6 UNK    0.0000
    144 H12        25.1350  104.1760   45.3450 H         6 UNK    0.0000
    145 H121       24.6850  101.8960   43.3810 H         6 UNK    0.0000
    146 H122       26.0730  102.0740   44.4810 H         6 UNK    0.0000
    147 H123       23.8350   99.7080   46.2500 H         6 UNK    0.0000
    148 H121       25.5670   98.4790   45.2630 H         6 UNK    0.0000
    149 H122       26.0170   99.8900   44.2760 H         6 UNK    0.0000
    150 H121       23.9830   99.5930   42.9060 H         6 UNK    0.0000
    151 H122       23.5060   98.1990   43.9040 H         6 UNK    0.0000
    152 H121       26.0470   98.4070   42.2290 H         6 UNK    0.0000
    153 H122       25.5780   97.0150   43.2340 H         6 UNK    0.0000
    154 H121       23.5120   96.7570   41.8620 H         6 UNK    0.0000
    155 H122       24.0560   98.1000   40.8280 H         6 UNK    0.0000
    156 H123       24.5390   95.9210   39.8120 H         6 UNK    0.0000
    157 H121       26.9620   98.3140   38.6110 H         6 UNK    0.0000
    158 HN1        24.8409   94.6748   41.8134 H         6 UNK    0.0000
    159 HN2        26.1719   94.5071   40.8541 H         6 UNK    0.0000
    160 HN3        26.2280   95.4893   42.1780 H         6 UNK    0.0000
    161 C1         29.0330  106.7110   35.6740 C.3       7 MGO    0.0000
    162 O1         27.7700  107.4200   35.8560 O.3       7 MGO    0.0000
    163 C2         28.8390  105.2130   35.9950 C.3       7 MGO    0.0000
    164 O2         27.8560  104.7100   35.1130 O.3       7 MGO    0.0000
    165 C3         28.4120  105.0350   37.4630 C.3       7 MGO    0.0000
    166 O3         28.3270  103.6550   37.7570 O.3       7 MGO    0.0000
    167 C4         29.4400  105.6860   38.4030 C.3       7 MGO    0.0000
    168 C5         29.6370  107.1710   38.0400 C.3       7 MGO    0.0000
    169 O5         29.9880  107.2530   36.6260 O.3       7 MGO    0.0000
    170 C6         30.7670  107.8590   38.8200 C.3       7 MGO    0.0000
    171 O6         32.0030  107.1910   38.6660 O.3       7 MGO    0.0000
    172 H1         29.3800  106.8280   34.6470 H         7 MGO    0.0000
    173 H2         29.7720  104.6640   35.8620 H         7 MGO    0.0000
    174 H2         27.0520  105.2140   35.2570 H         7 MGO    0.0000
    175 H3         27.4440  105.5140   37.6090 H         7 MGO    0.0000
    176 H3         29.1970  103.2740   37.6160 H         7 MGO    0.0000
    177 H4         30.3970  105.1700   38.3230 H         7 MGO    0.0000
    178 H5         28.7040  107.6760   38.2870 H         7 MGO    0.0000
    179 H61        30.8720  108.8810   38.4570 H         7 MGO    0.0000
    180 H62        30.5050  107.8740   39.8780 H         7 MGO    0.0000
    181 H6         32.2160  107.1880   37.7300 H         7 MGO    0.0000
@<TRIPOS>BOND
     1    1    2 1
     2    1    3 1
     3    1    9 1
     4    1   12 1
     5    2   28 1
     6    3    4 1
     7    3    5 1
     8    3   13 1
     9    4   14 1
    10    5    6 1
    11    5    7 1
    12    5   15 1
    13    6   16 1
    14    7    8 1
    15    7   17 1
    16    7  162 1
    17    8    9 1
    18    8   10 1
    19    8   18 1
    20   10   11 1
    21   10   19 1
    22   10   20 1
    23   11   21 1
    24   22   23 1
    25   22   24 1
    26   22   30 1
    27   22   33 1
    28   23   49 1
    29   24   25 1
    30   24   26 1
    31   24   34 1
    32   25   35 1
    33   26   27 1
    34   26   28 1
    35   26   36 1
    36   27   37 1
    37   28   29 1
    38   28   38 1
    39   29   30 1
    40   29   31 1
    41   29   39 1
    42   31   32 1
    43   31   40 1
    44   31   41 1
    45   32   42 1
    46   43   44 1
    47   43   45 1
    48   43   51 1
    49   43   54 1
    50   44   70 1
    51   45   46 1
    52   45   47 1
    53   45   55 1
    54   46   56 1
    55   47   48 1
    56   47   49 1
    57   47   57 1
    58   48   58 1
    59   49   50 1
    60   49   59 1
    61   50   51 1
    62   50   52 1
    63   50   60 1
    64   52   53 1
    65   52   61 1
    66   52   62 1
    67   53   63 1
    68   64   65 1
    69   64   66 1
    70   64   72 1
    71   64   75 1
    72   65   91 1
    73   66   67 1
    74   66   68 1
    75   66   76 1
    76   67   77 1
    77   68   69 1
    78   68   70 1
    79   68   78 1
    80   69   79 1
    81   70   71 1
    82   70   80 1
    83   71   72 1
    84   71   73 1
    85   71   81 1
    86   73   74 1
    87   73   82 1
    88   73   83 1
    89   74   84 1
    90   85   86 1
    91   85   87 1
    92   85   93 1
    93   85   96 1
    94   86  111 1
    95   87   88 1
    96   87   89 1
    97   87   97 1
    98   88   98 1
    99   89   90 1
   100   89   91 1
   101   89   99 1
   102   90  100 1
   103   91   92 1
   104   91  101 1
   105   92   93 1
   106   92   94 1
   107   92  102 1
   108   94   95 1
   109   94  103 1
   110   94  104 1
   111   95  105 1
   112  106  107 1
   113  106  108 1
   114  106  113 1
   115  106  133 1
   116  107  167 1
   117  108  109 1
   118  108  110 1
   119  108  134 1
   120  109  135 1
   121  110  111 1
   122  110  116 1
   123  110  136 1
   124  111  112 1
   125  111  137 1
   126  112  113 1
   127  112  114 1
   128  112  138 1
   129  114  115 1
   130  114  139 1
   131  114  140 1
   132  115  141 1
   133  116  117 am
   134  116  142 1
   135  117  118 1
   136  117  130 2
   137  118  119 1
   138  118  143 1
   139  118  144 1
   140  119  120 1
   141  119  145 1
   142  119  146 1
   143  120  121 am
   144  120  131 2
   145  121  122 1
   146  121  147 1
   147  122  123 1
   148  122  148 1
   149  122  149 1
   150  123  124 1
   151  123  150 1
   152  123  151 1
   153  124  125 1
   154  124  152 1
   155  124  153 1
   156  125  126 1
   157  125  154 1
   158  125  155 1
   159  126  127 1
   160  126  129 1
   161  126  156 1
   162  127  128 1
   163  127  132 2
   164  128  157 1
   165  161  162 1
   166  161  163 1
   167  161  169 1
   168  161  172 1
   169  163  164 1
   170  163  165 1
   171  163  173 1
   172  164  174 1
   173  165  166 1
   174  165  167 1
   175  165  175 1
   176  166  176 1
   177  167  168 1
   178  167  177 1
   179  168  169 1
   180  168  170 1
   181  168  178 1
   182  170  171 1
   183  170  179 1
   184  170  180 1
   185  171  181 1
   186  158  129 1
   187  159  129 1
   188  160  129 1
@<TRIPOS>SUBSTRUCTURE
     1 MGO     1 RESIDUE           4 A     MGO     2 ROOT
     2 MGO    22 RESIDUE           4 A     MGO     2
     3 MGO    43 RESIDUE           4 A     MGO     2
     4 MGO    64 RESIDUE           4 A     MGO     2
     5 MGO    85 RESIDUE           4 A     MGO     2
     6 UNK   106 RESIDUE           4 A     UNK     2
     7 MGO   161 RESIDUE           4 A     MGO     2
