@<TRIPOS>MOLECULE
MGLab23
193 200 7 0 0 
SMALL
NO_CHARGES


@<TRIPOS>ATOM
  1 C1      25.9470   110.7700    34.1300 C.3   1 MGO   0.0000 
  2 O1      24.9170   110.5290    35.1320 O.3   1 MGO   0.0000 
  3 C2      26.1270   109.5040    33.2640 C.3   1 MGO   0.0000 
  4 O2      24.8950   109.2520    32.6180 O.3   1 MGO   0.0000 
  5 C3      26.5480   108.3200    34.1520 C.3   1 MGO   0.0000 
  6 O3      26.7930   107.1920    33.3360 O.3   1 MGO   0.0000 
  7 C4      27.8280   108.6600    34.9350 C.3   1 MGO   0.0000 
  8 C5      27.6490   109.9600    35.7450 C.3   1 MGO   0.0000 
  9 O5      27.1950   111.0050    34.8350 O.3   1 MGO   0.0000 
 10 C6      28.9410   110.4680    36.4000 C.3   1 MGO   0.0000 
 11 O6      29.9710   110.6750    35.4550 O.3   1 MGO   0.0000 
 12 H1      25.6710   111.6150    33.5000 H     1 MGO   0.0000 
 13 H2      26.9090   109.6450    32.5180 H     1 MGO   0.0000 
 14 H2      24.2290   109.1330    33.3000 H     1 MGO   0.0000 
 15 H3      25.7460   108.1080    34.8600 H     1 MGO   0.0000 
 16 H3      27.5020   107.4200    32.7310 H     1 MGO   0.0000 
 17 H4      28.6590   108.7900    34.2410 H     1 MGO   0.0000 
 18 H5      26.9370   109.7350    36.5390 H     1 MGO   0.0000 
 19 H61     28.7320   111.4110    36.9040 H     1 MGO   0.0000 
 20 H62     29.2770   109.7320    37.1300 H     1 MGO   0.0000 
 21 H6      29.6570   111.3240    34.8210 H     1 MGO   0.0000 
 22 C1      21.4950   112.4980    36.6360 C.3   2 MGO   0.0000 
 23 O1      21.7760   111.9580    37.9600 O.3   2 MGO   0.0000 
 24 C2      21.2760   111.3380    35.6390 C.3   2 MGO   0.0000 
 25 O2      20.1930   110.5640    36.1160 O.3   2 MGO   0.0000 
 26 C3      22.5550   110.4920    35.5240 C.3   2 MGO   0.0000 
 27 O3      22.3630   109.4760    34.5590 O.3   2 MGO   0.0000 
 28 C4      23.7390   111.3740    35.0950 C.3   2 MGO   0.0000 
 29 C5      23.9260   112.5250    36.1040 C.3   2 MGO   0.0000 
 30 O5      22.6620   113.2500    36.2060 O.3   2 MGO   0.0000 
 31 C6      24.9960   113.5560    35.7130 C.3   2 MGO   0.0000 
 32 O6      24.7480   114.1170    34.4400 O.3   2 MGO   0.0000 
 33 H1      20.6050   113.1270    36.6690 H     2 MGO   0.0000 
 34 H2      21.0480   111.7180    34.6430 H     2 MGO   0.0000 
 35 H2      20.4260   110.2470    36.9910 H     2 MGO   0.0000 
 36 H3      22.7720   110.0480    36.4950 H     2 MGO   0.0000 
 37 H3      22.1750   109.9030    33.7200 H     2 MGO   0.0000 
 38 H4      23.5710   111.7970    34.1040 H     2 MGO   0.0000 
 39 H5      24.2480   112.0580    37.0350 H     2 MGO   0.0000 
 40 H61     25.0030   114.3540    36.4550 H     2 MGO   0.0000 
 41 H62     25.9690   113.0650    35.6980 H     2 MGO   0.0000 
 42 H6      23.8890   114.5430    34.4740 H     2 MGO   0.0000 
 43 C1      20.9350   112.7790    42.0130 C.3   3 MGO   0.0000 
 44 O1      21.6890   111.5850    42.3640 O.3   3 MGO   0.0000 
 45 C2      19.7420   112.3870    41.1140 C.3   3 MGO   0.0000 
 46 O2      18.9300   111.4930    41.8490 O.3   3 MGO   0.0000 
 47 C3      20.2530   111.7390    39.8130 C.3   3 MGO   0.0000 
 48 O3      19.1530   111.4700    38.9660 O.3   3 MGO   0.0000 
 49 C4      21.2250   112.6870    39.0890 C.3   3 MGO   0.0000 
 50 C5      22.3880   113.0780    40.0220 C.3   3 MGO   0.0000 
 51 O5      21.8150   113.6390    41.2400 O.3   3 MGO   0.0000 
 52 C6      23.3300   114.1420    39.4410 C.3   3 MGO   0.0000 
 53 O6      22.6380   115.3120    39.0550 O.3   3 MGO   0.0000 
 54 H1      20.5720   113.2770    42.9120 H     3 MGO   0.0000 
 55 H2      19.1600   113.2640    40.8300 H     3 MGO   0.0000 
 56 H2      19.4710   110.7350    42.0820 H     3 MGO   0.0000 
 57 H3      20.7740   110.8150    40.0600 H     3 MGO   0.0000 
 58 H3      18.7230   112.3060    38.7730 H     3 MGO   0.0000 
 59 H4      20.7010   113.5900    38.7760 H     3 MGO   0.0000 
 60 H5      22.9730   112.1740    40.1860 H     3 MGO   0.0000 
 61 H61     24.0710   114.4050    40.1950 H     3 MGO   0.0000 
 62 H62     23.8320   113.7260    38.5670 H     3 MGO   0.0000 
 63 H6      22.2030   115.6620    39.8360 H     3 MGO   0.0000 
 64 C1      23.4610   109.8970    45.8000 C.3   4 MGO   0.0000 
 65 O1      24.5380   109.4100    44.9550 O.3   4 MGO   0.0000 
 66 C2      22.1240   109.2910    45.3200 C.3   4 MGO   0.0000 
 67 O2      22.2400   107.8840    45.4070 O.3   4 MGO   0.0000 
 68 C3      21.8350   109.7350    43.8760 C.3   4 MGO   0.0000 
 69 O3      20.5750   109.2350    43.4730 O.3   4 MGO   0.0000 
 70 C4      21.8210   111.2690    43.7750 C.3   4 MGO   0.0000 
 71 C5      23.1580   111.8470    44.2850 C.3   4 MGO   0.0000 
 72 O5      23.3910   111.3390    45.6340 O.3   4 MGO   0.0000 
 73 C6      23.2070   113.3780    44.3810 C.3   4 MGO   0.0000 
 74 O6      22.1600   113.8900    45.1800 O.3   4 MGO   0.0000 
 75 H1      23.6400   109.6230    46.8400 H     4 MGO   0.0000 
 76 H2      21.2950   109.6340    45.9390 H     4 MGO   0.0000 
 77 H2      22.9770   107.6190    44.8510 H     4 MGO   0.0000 
 78 H3      22.6190   109.3430    43.2280 H     4 MGO   0.0000 
 79 H3      19.9150   109.6020    44.0660 H     4 MGO   0.0000 
 80 H4      21.0090   111.6900    44.3690 H     4 MGO   0.0000 
 81 H5      23.9080   111.5400    43.5560 H     4 MGO   0.0000 
 82 H61     24.1600   113.6740    44.8190 H     4 MGO   0.0000 
 83 H62     23.1220   113.7970    43.3790 H     4 MGO   0.0000 
 84 H6      22.2510   113.5110    46.0570 H     4 MGO   0.0000 
 85 C1      28.4100   107.8890    45.0950 C.3   5 MGO   0.0000 
 86 O1      28.0760   107.3930    43.7640 O.3   5 MGO   0.0000 
 87 C2      27.4290   107.3090    46.1360 C.3   5 MGO   0.0000 
 88 O2      27.6250   105.9110    46.1850 O.3   5 MGO   0.0000 
 89 C3      25.9870   107.6680    45.7370 C.3   5 MGO   0.0000 
 90 O3      25.0970   107.1980    46.7300 O.3   5 MGO   0.0000 
 91 C4      25.8220   109.1920    45.5880 C.3   5 MGO   0.0000 
 92 C5      26.8930   109.8020    44.6580 C.3   5 MGO   0.0000 
 93 O5      28.2100   109.3260    45.0740 O.3   5 MGO   0.0000 
 94 C6      26.9310   111.3360    44.7040 C.3   5 MGO   0.0000 
 95 O6      27.1970   111.8220    46.0040 O.3   5 MGO   0.0000 
 96 H1      29.4320   107.6090    45.3510 H     5 MGO   0.0000 
 97 H2      27.6080   107.7290    47.1260 H     5 MGO   0.0000 
 98 H2      27.4630   105.5640    45.3050 H     5 MGO   0.0000 
 99 H3      25.7640   107.1990    44.7780 H     5 MGO   0.0000 
100 H3      25.3260   107.6330    47.5540 H     5 MGO   0.0000 
101 H4      25.9120   109.6530    46.5720 H     5 MGO   0.0000 
102 H5      26.6340   109.4940    43.6450 H     5 MGO   0.0000 
103 H61     27.7120   111.6890    44.0310 H     5 MGO   0.0000 
104 H62     25.9660   111.7220    44.3750 H     5 MGO   0.0000 
105 H6      28.0490   111.4730    46.2760 H     5 MGO   0.0000 
106 C1      29.7350   104.9420    40.7620 C.3   6 UNK   0.0000 
107 O1      29.0640   105.7720    39.7710 O.3   6 UNK   0.0000 
108 C2      28.6760   104.3090    41.6930 C.3   6 UNK   0.0000 
109 O2      27.8150   103.5290    40.8870 O.3   6 UNK   0.0000 
110 C3      27.9020   105.4200    42.4220 C.3   6 UNK   0.0000 
111 C4      28.8680   106.3070    43.2250 C.3   6 UNK   0.0000 
112 C5      29.9310   106.9070    42.2820 C.3   6 UNK   0.0000 
113 O5      30.5830   105.8110    41.5670 O.3   6 UNK   0.0000 
114 C6      31.0340   107.6960    43.0020 C.3   6 UNK   0.0000 
115 O6      31.7160   106.9000    43.9500 O.3   6 UNK   0.0000 
116 NQ      26.9240   104.8300    43.3300 N.am  6 UNK   0.0000 
117 HQ      25.5940   104.9850    43.2290 C.2   6 UNK   0.0000 
118 C1      24.7490   104.3210    44.3150 C.3   6 UNK   0.0000 
119 C12     24.7180   102.7960    44.1530 C.3   6 UNK   0.0000 
120 C123    23.8870   102.0930    45.2310 C.2   6 UNK   0.0000 
121 N123    24.3210   100.8750    45.5940 N.am  6 UNK   0.0000 
122 C123    23.7240    99.9910    46.5920 C.3   6 UNK   0.0000 
123 C121    24.6940    98.9970    47.2520 C.2   6 UNK   0.0000 
124 O121    25.8180    98.5940    46.5900 O.3   6 UNK   0.0000 
125 C123    22.4880    99.2850    46.0020 C.3   6 UNK   0.0000 
126 C122    22.0380    98.0960    46.8640 C.3   6 UNK   0.0000 
127 C123    20.8560    97.3590    46.2340 C.2   6 UNK   0.0000 
128 N123    21.1290    96.6170    45.1500 N.am  6 UNK   0.0000 
129 C121    20.1500    95.8240    44.4110 C.3   6 UNK   0.0000 
130 C122    20.8240    94.6390    43.6970 C.2   6 UNK   0.0000 
131 N122    22.1070    94.7790    43.3220 N.am  6 UNK   0.0000 
132 C121    22.9010    93.7490    42.6680 C.3   6 UNK   0.0000 
133 C122    23.3780    92.7110    43.6800 C.2   6 UNK   0.0000 
134 O122    24.5820    92.9110    44.2910 O.3   6 UNK   0.0000 
135 C123    19.0760    95.2680    45.3580 C.3   6 UNK   0.0000 
136 S122    18.0610    96.6070    46.0400 S.3   6 UNK   0.0000 
137 O       25.0460   105.6200    42.3280 O.2   6 UNK   0.0000 BACKBONE
138 O       22.8750   102.6270    45.6860 O.2   6 UNK   0.0000 BACKBONE
139 O       24.4570    98.5510    48.3720 O.2   6 UNK   0.0000 BACKBONE
140 O       19.7290    97.4770    46.7140 O.2   6 UNK   0.0000 BACKBONE
141 O       20.1870    93.6000    43.5200 O.2   6 UNK   0.0000 BACKBONE
142 O       22.7010    91.7200    43.9470 O.2   6 UNK   0.0000 BACKBONE
143 H1      30.3170   104.1610    40.2730 H     6 UNK   0.0000 
144 H2      29.1400   103.6780    42.4510 H     6 UNK   0.0000 
145 H2      27.4230   104.1110    40.2320 H     6 UNK   0.0000 
146 H3      27.3900   106.0310    41.6790 H     6 UNK   0.0000 
147 H4      29.3670   105.7310    44.0040 H     6 UNK   0.0000 
148 H5      29.4030   107.6000    41.6270 H     6 UNK   0.0000 
149 H61     31.7500   108.0550    42.2630 H     6 UNK   0.0000 
150 H62     30.5830   108.5460    43.5150 H     6 UNK   0.0000 
151 H6      32.1050   106.1580    43.4800 H     6 UNK   0.0000 
152 HQ      27.2720   104.2650    44.0900 H     6 UNK   0.0000 
153 H11     23.7300   104.7050    44.2540 H     6 UNK   0.0000 
154 H12     25.1710   104.5650    45.2900 H     6 UNK   0.0000 
155 H121    24.2930   102.5590    43.1780 H     6 UNK   0.0000 
156 H122    25.7400   102.4210    44.2050 H     6 UNK   0.0000 
157 H123    25.1500   100.5340    45.1270 H     6 UNK   0.0000 
158 H123    23.4180   100.6370    47.4150 H     6 UNK   0.0000 
159 H121    26.3660    97.9660    47.0660 H     6 UNK   0.0000 
160 H121    22.7330    98.9230    45.0030 H     6 UNK   0.0000 
161 H122    21.6700   100.0030    45.9370 H     6 UNK   0.0000 
162 H121    22.8710    97.4020    46.9710 H     6 UNK   0.0000 
163 H122    21.7420    98.4640    47.8460 H     6 UNK   0.0000 
164 H123    22.0840    96.6060    44.8200 H     6 UNK   0.0000 
165 H121    19.6930    96.4840    43.6740 H     6 UNK   0.0000 
166 H122    22.5540    95.6660    43.5080 H     6 UNK   0.0000 
167 H121    23.7670    94.2110    42.1940 H     6 UNK   0.0000 
168 H122    22.2920    93.2550    41.9100 H     6 UNK   0.0000 
169 H122    24.8350    92.2320    44.9210 H     6 UNK   0.0000 
170 H121    18.4360    94.5790    44.8070 H     6 UNK   0.0000 
171 H122    19.5630    94.7360    46.1760 H     6 UNK   0.0000 
172 H122    17.4630    97.2630    45.0420 H     6 UNK   0.0000 
173 C1      29.2610   106.7880    35.6890 C.3   7 MGO   0.0000 
174 O1      28.0510   107.5780    35.8750 O.3   7 MGO   0.0000 
175 C2      28.9680   105.3100    36.0310 C.3   7 MGO   0.0000 
176 O2      27.9450   104.8670    35.1610 O.3   7 MGO   0.0000 
177 C3      28.5370   105.1830    37.5030 C.3   7 MGO   0.0000 
178 O3      28.3520   103.8170    37.8160 O.3   7 MGO   0.0000 
179 C4      29.6150   105.7710    38.4300 C.3   7 MGO   0.0000 
180 C5      29.9170   107.2320    38.0460 C.3   7 MGO   0.0000 
181 O5      30.2580   107.2770    36.6270 O.3   7 MGO   0.0000 
182 C6      31.1000   107.8430    38.8110 C.3   7 MGO   0.0000 
183 O6      32.2850   107.0930    38.6390 O.3   7 MGO   0.0000 
184 H1      29.6080   106.8690    34.6590 H     7 MGO   0.0000 
185 H2      29.8580   104.6960    35.9000 H     7 MGO   0.0000 
186 H2      27.1790   105.4280    35.3040 H     7 MGO   0.0000 
187 H3      27.6070   105.7330    37.6480 H     7 MGO   0.0000 
188 H3      29.1900   103.3710    37.6750 H     7 MGO   0.0000 
189 H4      30.5300   105.1830    38.3530 H     7 MGO   0.0000 
190 H5      29.0240   107.8050    38.2950 H     7 MGO   0.0000 
191 H61     31.2690   108.8560    38.4460 H     7 MGO   0.0000 
192 H62     30.8550   107.8740    39.8720 H     7 MGO   0.0000 
193 H6      32.4850   107.0760    37.7000 H     7 MGO   0.0000 
@<TRIPOS>BOND
  1   1   2  1   
  2   1   3  1   
  3   1   9  1   
  4   1  12  1   
  5   2  28  1   INTERRES
  6   3   4  1   
  7   3   5  1   
  8   3  13  1   
  9   4  14  1   
 10   5   6  1   
 11   5   7  1   
 12   5  15  1   
 13   6  16  1   
 14   7   8  1   
 15   7  17  1   
 16   7 174  1   INTERRES
 17   8   9  1   
 18   8  10  1   
 19   8  18  1   
 20  10  11  1   
 21  10  19  1   
 22  10  20  1   
 23  11  21  1   
 24  22  23  1   
 25  22  24  1   
 26  22  30  1   
 27  22  33  1   
 28  23  49  1   INTERRES
 29  24  25  1   
 30  24  26  1   
 31  24  34  1   
 32  25  35  1   
 33  26  27  1   
 34  26  28  1   
 35  26  36  1   
 36  27  37  1   
 37  28  29  1   
 38  28  38  1   
 39  29  30  1   
 40  29  31  1   
 41  29  39  1   
 42  31  32  1   
 43  31  40  1   
 44  31  41  1   
 45  32  42  1   
 46  43  44  1   
 47  43  45  1   
 48  43  51  1   
 49  43  54  1   
 50  44  70  1   INTERRES
 51  45  46  1   
 52  45  47  1   
 53  45  55  1   
 54  46  56  1   
 55  47  48  1   
 56  47  49  1   
 57  47  57  1   
 58  48  58  1   
 59  49  50  1   
 60  49  59  1   
 61  50  51  1   
 62  50  52  1   
 63  50  60  1   
 64  52  53  1   
 65  52  61  1   
 66  52  62  1   
 67  53  63  1   
 68  64  65  1   
 69  64  66  1   
 70  64  72  1   
 71  64  75  1   
 72  65  91  1   INTERRES
 73  66  67  1   
 74  66  68  1   
 75  66  76  1   
 76  67  77  1   
 77  68  69  1   
 78  68  70  1   
 79  68  78  1   
 80  69  79  1   
 81  70  71  1   
 82  70  80  1   
 83  71  72  1   
 84  71  73  1   
 85  71  81  1   
 86  73  74  1   
 87  73  82  1   
 88  73  83  1   
 89  74  84  1   
 90  85  86  1   
 91  85  87  1   
 92  85  93  1   
 93  85  96  1   
 94  86 111  1   INTERRES
 95  87  88  1   
 96  87  89  1   
 97  87  97  1   
 98  88  98  1   
 99  89  90  1   
100  89  91  1   
101  89  99  1   
102  90 100  1   
103  91  92  1   
104  91 101  1   
105  92  93  1   
106  92  94  1   
107  92 102  1   
108  94  95  1   
109  94 103  1   
110  94 104  1   
111  95 105  1   
112 106 107  1   
113 106 108  1   
114 106 113  1   
115 106 143  1   
116 107 179  1   INTERRES
117 108 109  1   
118 108 110  1   
119 108 144  1   
120 109 145  1   
121 110 111  1   
122 110 116  1   
123 110 146  1   
124 111 112  1   
125 111 147  1   
126 112 113  1   
127 112 114  1   
128 112 148  1   
129 114 115  1   
130 114 149  1   
131 114 150  1   
132 115 151  1   
133 116 117  am  
134 116 152  1   
135 117 118  1   
136 117 137  2   
137 118 119  1   
138 118 153  1   
139 118 154  1   
140 119 120  1   
141 119 155  1   
142 119 156  1   
143 120 121  am  
144 120 138  2   
145 121 122  1   
146 121 157  1   
147 122 123  1   
148 122 125  1   
149 122 158  1   
150 123 124  1   
151 123 139  2   
152 124 159  1   
153 125 126  1   
154 125 160  1   
155 125 161  1   
156 126 127  1   
157 126 162  1   
158 126 163  1   
159 127 128  am  
160 127 140  2   
161 128 129  1   
162 128 164  1   
163 129 130  1   
164 129 135  1   
165 129 165  1   
166 130 131  am  
167 130 141  2   
168 131 132  1   
169 131 166  1   
170 132 133  1   
171 132 167  1   
172 132 168  1   
173 133 134  1   
174 133 142  2   
175 134 169  1   
176 135 136  1   
177 135 170  1   
178 135 171  1   
179 136 172  1   
180 173 174  1   
181 173 175  1   
182 173 181  1   
183 173 184  1   
184 175 176  1   
185 175 177  1   
186 175 185  1   
187 176 186  1   
188 177 178  1   
189 177 179  1   
190 177 187  1   
191 178 188  1   
192 179 180  1   
193 179 189  1   
194 180 181  1   
195 180 182  1   
196 180 190  1   
197 182 183  1   
198 182 191  1   
199 182 192  1   
200 183 193  1   
@<TRIPOS>SUBSTRUCTURE
  1 MGO   7 GROUP 4 **** **** 2
  2 MGO  28 GROUP 4 **** **** 2
  3 MGO  49 GROUP 4 **** **** 2
  4 MGO  70 GROUP 4 **** **** 2
  5 MGO  91 GROUP 4 **** **** 2
  6 UNK 121 GROUP 4 **** **** 2
  7 MGO 179 GROUP 4 **** **** 2

# MOE 2018.01 (io_trps.svl 2018.01)
