@<TRIPOS>MOLECULE
MGLab19
156 163 7 0 0 
SMALL
USER_CHARGES


@<TRIPOS>ATOM
  1 C1      25.4580   111.0230    33.9330 C.3   1 MGO   0.0000 
  2 O1      24.6720   110.9680    35.1600 O.3   1 MGO   0.0000 
  3 C2      25.7350   109.5880    33.4320 C.3   1 MGO   0.0000 
  4 O2      24.4860   108.9670    33.2030 O.3   1 MGO   0.0000 
  5 C3      26.5580   108.8150    34.4770 C.3   1 MGO   0.0000 
  6 O3      26.8570   107.5260    33.9800 O.3   1 MGO   0.0000 
  7 C4      27.8710   109.5590    34.7700 C.3   1 MGO   0.0000 
  8 C5      27.5650   110.9900    35.2580 C.3   1 MGO   0.0000 
  9 O5      26.7340   111.6450    34.2510 O.3   1 MGO   0.0000 
 10 C6      28.8030   111.8760    35.4550 C.3   1 MGO   0.0000 
 11 O6      29.5820   111.9630    34.2800 O.3   1 MGO   0.0000 
 12 H1      24.9410   111.5840    33.1660 H     1 MGO   0.0000 
 13 H2      26.2920   109.6120    32.4940 H     1 MGO   0.0000 
 14 H2      23.9800   108.9910    34.0180 H     1 MGO   0.0000 
 15 H3      25.9830   108.7160    35.3980 H     1 MGO   0.0000 
 16 H3      27.3630   107.6210    33.1690 H     1 MGO   0.0000 
 17 H4      28.4720   109.5920    33.8600 H     1 MGO   0.0000 
 18 H5      27.0430   110.9250    36.2140 H     1 MGO   0.0000 
 19 H6      29.9100   111.0870    34.0660 H     1 MGO   0.0000 
 20 H61     29.4150   111.4780    36.2630 H     1 MGO   0.0000 
 21 H62     28.4790   112.8780    35.7370 H     1 MGO   0.0000 
 22 C1      21.5190   113.0490    37.0520 C.3   2 MGO   0.0000 
 23 O1      21.6170   112.1340    38.1850 O.3   2 MGO   0.0000 
 24 C2      21.1770   112.2530    35.7730 C.3   2 MGO   0.0000 
 25 O2      19.9480   111.5900    35.9980 O.3   2 MGO   0.0000 
 26 C3      22.3000   111.2500    35.4540 C.3   2 MGO   0.0000 
 27 O3      22.0070   110.6000    34.2330 O.3   2 MGO   0.0000 
 28 C4      23.6460   111.9820    35.3210 C.3   2 MGO   0.0000 
 29 C5      23.9480   112.7730    36.6080 C.3   2 MGO   0.0000 
 30 O5      22.8220   113.6650    36.8630 O.3   2 MGO   0.0000 
 31 C6      25.2050   113.6510    36.5250 C.3   2 MGO   0.0000 
 32 O6      25.1540   114.5500    35.4370 O.3   2 MGO   0.0000 
 33 H1      20.7620   113.8030    37.2260 H     2 MGO   0.0000 
 34 H2      21.0590   112.9290    34.9250 H     2 MGO   0.0000 
 35 H2      20.0420   111.0300    36.7720 H     2 MGO   0.0000 
 36 H3      22.3670   110.5070    36.2490 H     2 MGO   0.0000 
 37 H3      21.9520   111.2620    33.5400 H     2 MGO   0.0000 
 38 H4      23.5950   112.6690    34.4750 H     2 MGO   0.0000 
 39 H5      24.0840   112.0680    37.4300 H     2 MGO   0.0000 
 40 H6      25.1310   114.0420    34.6220 H     2 MGO   0.0000 
 41 H61     26.0840   113.0190    36.4250 H     2 MGO   0.0000 
 42 H62     25.3000   114.2220    37.4490 H     2 MGO   0.0000 
 43 C1      20.6950   112.0730    42.3130 C.3   3 MGO   0.0000 
 44 O1      21.4320   110.8230    42.4420 O.3   3 MGO   0.0000 
 45 C2      19.5270   111.8840    41.3210 C.3   3 MGO   0.0000 
 46 O2      18.6920   110.8650    41.8330 O.3   3 MGO   0.0000 
 47 C3      20.0710   111.5170    39.9280 C.3   3 MGO   0.0000 
 48 O3      18.9950   111.4290    39.0150 O.3   3 MGO   0.0000 
 49 C4      21.0570   112.5950    39.4440 C.3   3 MGO   0.0000 
 50 C5      22.2030   112.7540    40.4630 C.3   3 MGO   0.0000 
 51 O5      21.6040   113.0600    41.7550 O.3   3 MGO   0.0000 
 52 C6      23.1850   113.8910    40.1490 C.3   3 MGO   0.0000 
 53 O6      22.5270   115.1270    39.9630 O.3   3 MGO   0.0000 
 54 H1      20.3190   112.4050    43.2720 H     3 MGO   0.0000 
 55 H2      18.9450   112.8030    41.2380 H     3 MGO   0.0000 
 56 H2      19.2160   110.0680    41.9440 H     3 MGO   0.0000 
 57 H3      20.5800   110.5530    39.9730 H     3 MGO   0.0000 
 58 H3      18.5520   112.2790    38.9840 H     3 MGO   0.0000 
 59 H4      20.5220   113.5410    39.3450 H     3 MGO   0.0000 
 60 H5      22.7700   111.8230    40.5030 H     3 MGO   0.0000 
 61 H6      21.9550   115.0550    39.1950 H     3 MGO   0.0000 
 62 H61     23.7490   113.6460    39.2520 H     3 MGO   0.0000 
 63 H62     23.8900   113.9870    40.9750 H     3 MGO   0.0000 
 64 C1      23.0600   108.4750    45.5620 C.3   4 MGO   0.0000 
 65 O1      24.1560   108.0850    44.6910 O.3   4 MGO   0.0000 
 66 C2      21.7210   108.0180    44.9410 C.3   4 MGO   0.0000 
 67 O2      21.7830   106.6140    44.7820 O.3   4 MGO   0.0000 
 68 C3      21.4950   108.7200    43.5910 C.3   4 MGO   0.0000 
 69 O3      20.2320   108.3480    43.0760 O.3   4 MGO   0.0000 
 70 C4      21.5340   110.2470    43.7700 C.3   4 MGO   0.0000 
 71 C5      22.8840   110.6630    44.3890 C.3   4 MGO   0.0000 
 72 O5      23.0550   109.9270    45.6390 O.3   4 MGO   0.0000 
 73 C6      23.0080   112.1530    44.7380 C.3   4 MGO   0.0000 
 74 O6      21.9680   112.5820    45.5930 O.3   4 MGO   0.0000 
 75 H1      23.1740   108.0400    46.5460 H     4 MGO   0.0000 
 76 H2      20.8900   108.2590    45.6060 H     4 MGO   0.0000 
 77 H2      22.5430   106.4030    44.2340 H     4 MGO   0.0000 
 78 H3      22.2700   108.4180    42.8850 H     4 MGO   0.0000 
 79 H3      19.5560   108.6160    43.7030 H     4 MGO   0.0000 
 80 H4      20.7130   110.5490    44.4220 H     4 MGO   0.0000 
 81 H5      23.6740   110.4190    43.6780 H     4 MGO   0.0000 
 82 H6      21.1340   112.4940    45.1260 H     4 MGO   0.0000 
 83 H61     22.9940   112.7480    43.8280 H     4 MGO   0.0000 
 84 H62     23.9630   112.3190    45.2360 H     4 MGO   0.0000 
 85 C1      28.0530   106.5560    44.8570 C.3   5 MGO   0.0000 
 86 O1      27.9200   106.3780    43.4200 O.3   5 MGO   0.0000 
 87 C2      26.9670   105.7320    45.5790 C.3   5 MGO   0.0000 
 88 O2      27.1910   104.3700    45.2720 O.3   5 MGO   0.0000 
 89 C3      25.5720   106.1910    45.1160 C.3   5 MGO   0.0000 
 90 O3      24.5860   105.4960    45.8540 O.3   5 MGO   0.0000 
 91 C4      25.3950   107.7030    45.3420 C.3   5 MGO   0.0000 
 92 C5      26.5340   108.5070    44.6830 C.3   5 MGO   0.0000 
 93 O5      27.8040   107.9580    45.1420 O.3   5 MGO   0.0000 
 94 C6      26.5310   109.9990    45.0460 C.3   5 MGO   0.0000 
 95 O6      26.5950   110.2080    46.4420 O.3   5 MGO   0.0000 
 96 H1      29.0370   106.2660    45.2010 H     5 MGO   0.0000 
 97 H2      27.0410   105.8640    46.6590 H     5 MGO   0.0000 
 98 H2      27.1710   104.2660    44.3180 H     5 MGO   0.0000 
 99 H3      25.4460   105.9680    44.0570 H     5 MGO   0.0000 
100 H3      24.7040   105.6980    46.7850 H     5 MGO   0.0000 
101 H4      25.3860   107.9020    46.4140 H     5 MGO   0.0000 
102 H5      26.4400   108.4250    43.5990 H     5 MGO   0.0000 
103 H6      25.8010   109.8440    46.8410 H     5 MGO   0.0000 
104 H61     25.6300   110.4670    44.6580 H     5 MGO   0.0000 
105 H62     27.3920   110.4770    44.5790 H     5 MGO   0.0000 
106 C1      30.4140   105.5550    40.1240 C.3   6 MGO   0.0000 
107 O1      29.6490   106.5100    39.3360 O.3   6 MGO   0.0000 
108 C2      29.4820   104.4230    40.6100 C.3   6 MGO   0.0000 
109 O2      28.9180   103.8180    39.4630 O.3   6 MGO   0.0000 
110 C3      28.3910   104.9990    41.5280 C.3   6 MGO   0.0000 
111 C4      29.0190   105.7560    42.7120 C.3   6 MGO   0.0000 
112 C5      29.9520   106.8650    42.1870 C.3   6 MGO   0.0000 
113 O5      30.9280   106.2560    41.2880 O.3   6 MGO   0.0000 
114 C6      30.7550   107.6050    43.2670 C.3   6 MGO   0.0000 
115 O6      31.5280   106.7170    44.0490 O.3   6 MGO   0.0000 
116 NQ      27.5590   103.9160    42.0420 N.am  6 MGO   0.0000 
117 C9      26.2170   103.9080    42.0290 C.2   6 MGO   0.0000 
118 C       25.5480   102.6830    42.6510 C.3   6 MGO   0.0000 BACKBONE
119 N1      24.4510   103.0610    43.5580 N.4   6 MGO   1.0000 
120 O       25.5320   104.8220    41.5680 O.2   6 MGO   0.0000 BACKBONE
121 HC      26.2940   102.1210    43.2140 H     6 MGO   0.0000 
122 HC      25.1470   102.0570    41.8540 H     6 MGO   0.0000 
123 H1      31.2210   105.1320    39.5260 H     6 MGO   0.0000 
124 H11     24.8130   103.6420    44.3010 H     6 MGO   0.0000 
125 H12     24.0380   102.2280    43.9530 H     6 MGO   0.0000 
126 H13     23.7490   103.5720    43.0430 H     6 MGO   0.0000 
127 H2      30.0330   103.6810    41.1870 H     6 MGO   0.0000 
128 H2      28.4420   104.4980    38.9810 H     6 MGO   0.0000 
129 H3      27.7840   105.6920    40.9460 H     6 MGO   0.0000 
130 H4      29.5760   105.0530    43.3340 H     6 MGO   0.0000 
131 H5      29.2980   107.5950    41.7100 H     6 MGO   0.0000 
132 H6      31.3290   106.8940    44.9710 H     6 MGO   0.0000 
133 H62     31.4210   108.3200    42.7840 H     6 MGO   0.0000 
134 H63     30.0620   108.1370    43.9190 H     6 MGO   0.0000 
135 HQ      27.8200   103.8120    43.0120 H     6 MGO   0.0000 
136 C1      29.9800   108.7520    35.8050 C.3   7 MGO   0.0000 
137 O1      28.5250   108.8360    35.8420 O.3   7 MGO   0.0000 
138 C2      30.4060   107.2710    35.7180 C.3   7 MGO   0.0000 
139 O2      29.8890   106.7500    34.5100 O.3   7 MGO   0.0000 
140 C3      29.8680   106.5020    36.9380 C.3   7 MGO   0.0000 
141 O3      30.3360   105.1690    36.8860 O.3   7 MGO   0.0000 
142 C4      30.3510   107.1590    38.2440 C.3   7 MGO   0.0000 
143 C5      29.9880   108.6570    38.2830 C.3   7 MGO   0.0000 
144 O5      30.4790   109.2810    37.0610 O.3   7 MGO   0.0000 
145 C6      30.6220   109.4150    39.4580 C.3   7 MGO   0.0000 
146 O6      32.0290   109.2870    39.4770 O.3   7 MGO   0.0000 
147 H1      30.3840   109.3100    34.9700 H     7 MGO   0.0000 
148 H2      31.4930   107.1870    35.6980 H     7 MGO   0.0000 
149 H2      28.9360   106.8700    34.5090 H     7 MGO   0.0000 
150 H3      28.7770   106.4970    36.9170 H     7 MGO   0.0000 
151 H3      31.2960   105.1820    36.9060 H     7 MGO   0.0000 
152 H4      31.4330   107.0470    38.3180 H     7 MGO   0.0000 
153 H5      28.9040   108.7550    38.3640 H     7 MGO   0.0000 
154 H6      32.2480   108.3610    39.6060 H     7 MGO   0.0000 
155 H61     30.2200   109.0390    40.3950 H     7 MGO   0.0000 
156 H62     30.3660   110.4720    39.3770 H     7 MGO   0.0000 
@<TRIPOS>BOND
  1   1   2  1   
  2   1   3  1   
  3   1   9  1   
  4   1  12  1   
  5   2  28  1   INTERRES
  6   3   4  1   
  7   3   5  1   
  8   3  13  1   
  9   4  14  1   
 10   5   6  1   
 11   5   7  1   
 12   5  15  1   
 13   6  16  1   
 14   7   8  1   
 15   7  17  1   
 16   7 137  1   INTERRES
 17   8   9  1   
 18   8  10  1   
 19   8  18  1   
 20  10  11  1   
 21  10  20  1   
 22  10  21  1   
 23  11  19  1   
 24  22  23  1   
 25  22  24  1   
 26  22  30  1   
 27  22  33  1   
 28  23  49  1   INTERRES
 29  24  25  1   
 30  24  26  1   
 31  24  34  1   
 32  25  35  1   
 33  26  27  1   
 34  26  28  1   
 35  26  36  1   
 36  27  37  1   
 37  28  29  1   
 38  28  38  1   
 39  29  30  1   
 40  29  31  1   
 41  29  39  1   
 42  31  32  1   
 43  31  41  1   
 44  31  42  1   
 45  32  40  1   
 46  43  44  1   
 47  43  45  1   
 48  43  51  1   
 49  43  54  1   
 50  44  70  1   INTERRES
 51  45  46  1   
 52  45  47  1   
 53  45  55  1   
 54  46  56  1   
 55  47  48  1   
 56  47  49  1   
 57  47  57  1   
 58  48  58  1   
 59  49  50  1   
 60  49  59  1   
 61  50  51  1   
 62  50  52  1   
 63  50  60  1   
 64  52  53  1   
 65  52  62  1   
 66  52  63  1   
 67  53  61  1   
 68  64  65  1   
 69  64  66  1   
 70  64  72  1   
 71  64  75  1   
 72  65  91  1   INTERRES
 73  66  67  1   
 74  66  68  1   
 75  66  76  1   
 76  67  77  1   
 77  68  69  1   
 78  68  70  1   
 79  68  78  1   
 80  69  79  1   
 81  70  71  1   
 82  70  80  1   
 83  71  72  1   
 84  71  73  1   
 85  71  81  1   
 86  73  74  1   
 87  73  83  1   
 88  73  84  1   
 89  74  82  1   
 90  85  86  1   
 91  85  87  1   
 92  85  93  1   
 93  85  96  1   
 94  86 111  1   INTERRES
 95  87  88  1   
 96  87  89  1   
 97  87  97  1   
 98  88  98  1   
 99  89  90  1   
100  89  91  1   
101  89  99  1   
102  90 100  1   
103  91  92  1   
104  91 101  1   
105  92  93  1   
106  92  94  1   
107  92 102  1   
108  94  95  1   
109  94 104  1   
110  94 105  1   
111  95 103  1   
112 106 107  1   
113 106 108  1   
114 106 113  1   
115 106 123  1   
116 107 142  1   INTERRES
117 108 109  1   
118 108 110  1   
119 108 127  1   
120 109 128  1   
121 110 111  1   
122 110 116  1   
123 110 129  1   
124 111 112  1   
125 111 130  1   
126 112 113  1   
127 112 114  1   
128 112 131  1   
129 114 115  1   
130 114 133  1   
131 114 134  1   
132 115 132  1   
133 116 117  am  
134 116 135  1   
135 117 118  1   
136 117 120  2   
137 118 119  1   
138 118 121  1   
139 118 122  1   
140 119 124  1   
141 119 125  1   
142 119 126  1   
143 136 137  1   
144 136 138  1   
145 136 144  1   
146 136 147  1   
147 138 139  1   
148 138 140  1   
149 138 148  1   
150 139 149  1   
151 140 141  1   
152 140 142  1   
153 140 150  1   
154 141 151  1   
155 142 143  1   
156 142 152  1   
157 143 144  1   
158 143 145  1   
159 143 153  1   
160 145 146  1   
161 145 155  1   
162 145 156  1   
163 146 154  1   
@<TRIPOS>SUBSTRUCTURE
  1 MGO   7 GROUP 4 **** **** 2
  2 MGO  28 GROUP 4 **** **** 2
  3 MGO  49 GROUP 4 **** **** 2
  4 MGO  70 GROUP 4 **** **** 2
  5 MGO  91 GROUP 4 **** **** 2
  6 MGO 110 GROUP 4 **** **** 2
  7 MGO 142 GROUP 4 **** **** 2

# MOE 2019.01 (io_trps.svl 2018.10)
