
     RDKit          3D

 26 26  0  0  0  0  0  0  0  0999 V2000
  -23.1292   13.1182   31.3413 F   0  0  0  0  0  0  0  0  0  0  0  0
  -23.3095   13.0648   30.0123 C   0  0  0  0  0  0  0  0  0  0  0  0
  -24.1170   13.9924   29.3289 C   0  0  0  0  0  0  0  0  0  0  0  0
  -24.7608   15.0492   29.9923 N   0  0  0  0  0  0  0  0  0  0  0  0
  -26.2102   15.2348   29.7447 C   0  0  0  0  0  0  0  0  0  0  0  0
  -26.9422   13.8809   29.6935 C   0  0  0  0  0  0  0  0  0  0  0  0
  -26.6818   13.3399   28.7773 H   0  0  0  0  0  0  0  0  0  0  0  0
  -28.0290   14.0102   29.7020 H   0  0  0  0  0  0  0  0  0  0  0  0
  -26.5977   13.0529   30.8023 O   0  0  0  0  0  0  0  0  0  0  0  0
  -27.1161   12.2380   30.6758 H   0  0  0  0  0  0  0  0  0  0  0  0
  -26.4865   16.0640   28.4845 C   0  0  0  0  0  0  0  0  0  0  0  0
  -27.5472   16.3360   28.4389 H   0  0  0  0  0  0  0  0  0  0  0  0
  -26.2590   15.5196   27.5633 H   0  0  0  0  0  0  0  0  0  0  0  0
  -25.9043   16.9907   28.4890 H   0  0  0  0  0  0  0  0  0  0  0  0
  -24.0246   15.9214   30.8959 C   0  0  0  0  0  0  0  0  0  0  0  0
  -23.8285   15.4167   31.8476 H   0  0  0  0  0  0  0  0  0  0  0  0
  -24.5671   16.8448   31.1188 H   0  0  0  0  0  0  0  0  0  0  0  0
  -23.0771   16.2466   30.4497 H   0  0  0  0  0  0  0  0  0  0  0  0
  -24.2980   13.9141   28.0015 N   0  0  0  0  0  0  0  0  0  0  0  0
  -23.7043   12.9193   27.3305 C   0  0  0  0  0  0  0  0  0  0  0  0
  -23.8621   12.8695   26.2837 H   0  0  0  0  0  0  0  0  0  0  0  0
  -22.9002   11.9656   27.9576 C   0  0  0  0  0  0  0  0  0  0  0  0
  -22.4504   11.1953   27.3872 H   0  0  0  0  0  0  0  0  0  0  0  0
  -22.6910   12.0329   29.3327 C   0  0  0  0  0  0  0  0  0  0  0  0
  -22.0852   11.3292   29.8423 H   0  0  0  0  0  0  0  0  0  0  0  0
  -26.6493   15.8233   30.5616 H   0  0  0  0  0  0  0  0  0  0  0  0
  1  2  1  0
  2  3  1  0
  2 24  2  0
  3  4  1  0
  3 19  2  0
  4  5  1  0
  4 15  1  0
  5  6  1  0
  5 11  1  0
  5 26  1  0
  6  7  1  0
  6  8  1  0
  6  9  1  0
  9 10  1  0
 11 12  1  0
 11 13  1  0
 11 14  1  0
 15 16  1  0
 15 17  1  0
 15 18  1  0
 19 20  1  0
 20 21  1  0
 20 22  2  0
 22 23  1  0
 22 24  1  0
 24 25  1  0
M  END
$$$$
