
     RDKit          3D

 20 20  0  0  0  0  0  0  0  0999 V2000
  -21.6659   11.9174   27.7836 S   0  0  0  0  0  0  0  0  0  0  0  0
  -22.2177   10.6451   27.3783 O   0  0  0  0  0  0  0  0  0  0  0  0
  -21.2619   12.1807   29.1477 O   0  0  0  0  0  0  0  0  0  0  0  0
  -22.7900   13.1016   27.3624 N   0  0  0  0  0  0  0  0  0  0  0  0
  -23.0215   13.0792   26.3667 H   0  0  0  0  0  0  0  0  0  0  0  0
  -23.6072   13.0982   27.9782 H   0  0  0  0  0  0  0  0  0  0  0  0
  -20.3221   12.3125   26.7170 C   0  0  0  0  0  0  0  0  0  0  0  0
  -19.8015   11.3483   25.8488 C   0  0  0  0  0  0  0  0  0  0  0  0
  -20.1921   10.3637   25.8376 H   0  0  0  0  0  0  0  0  0  0  0  0
  -18.7665   11.7002   24.9957 C   0  0  0  0  0  0  0  0  0  0  0  0
  -18.2687   10.7700   24.1678 F   0  0  0  0  0  0  0  0  0  0  0  0
  -18.2313   12.9790   24.9622 C   0  0  0  0  0  0  0  0  0  0  0  0
  -17.4426   13.2066   24.2921 H   0  0  0  0  0  0  0  0  0  0  0  0
  -18.7515   13.9490   25.8159 C   0  0  0  0  0  0  0  0  0  0  0  0
  -18.2291   15.3553   25.7726 C   0  0  0  0  0  0  0  0  0  0  0  0
  -17.1744   15.3728   25.4783 H   0  0  0  0  0  0  0  0  0  0  0  0
  -18.2986   15.8278   26.7578 H   0  0  0  0  0  0  0  0  0  0  0  0
  -18.8062   15.9468   25.0558 H   0  0  0  0  0  0  0  0  0  0  0  0
  -19.7962   13.6114   26.6813 C   0  0  0  0  0  0  0  0  0  0  0  0
  -20.2076   14.3502   27.3237 H   0  0  0  0  0  0  0  0  0  0  0  0
  1  2  2  0
  1  3  2  0
  1  4  1  0
  1  7  1  0
  4  5  1  0
  4  6  1  0
  7  8  1  0
  7 19  2  0
  8  9  1  0
  8 10  2  0
 10 11  1  0
 10 12  1  0
 12 13  1  0
 12 14  2  0
 14 15  1  0
 14 19  1  0
 15 16  1  0
 15 17  1  0
 15 18  1  0
 19 20  1  0
M  END
$$$$
