
     RDKit          3D

 39 40  0  0  0  0  0  0  0  0999 V2000
  -16.9967   15.5404   26.8110 O   0  0  0  0  0  0  0  0  0  0  0  0
  -17.4008   16.6901   26.9538 C   0  0  0  0  0  0  0  0  0  0  0  0
  -18.8769   16.9643   27.2373 C   0  0  0  0  0  0  0  0  0  0  0  0
  -18.9196   17.6702   28.0752 H   0  0  0  0  0  0  0  0  0  0  0  0
  -19.3329   17.4898   26.3893 H   0  0  0  0  0  0  0  0  0  0  0  0
  -19.6424   15.8270   27.5993 O   0  0  0  0  0  0  0  0  0  0  0  0
  -19.4342   14.6482   26.9296 C   0  0  0  0  0  0  0  0  0  0  0  0
  -19.3231   13.3880   27.5157 C   0  0  0  0  0  0  0  0  0  0  0  0
  -19.3882   13.2644   28.5649 H   0  0  0  0  0  0  0  0  0  0  0  0
  -19.1196   12.2748   26.7062 C   0  0  0  0  0  0  0  0  0  0  0  0
  -19.0405   11.3136   27.1474 H   0  0  0  0  0  0  0  0  0  0  0  0
  -19.0168   12.4155   25.3220 C   0  0  0  0  0  0  0  0  0  0  0  0
  -18.8298   11.2062   24.4505 C   0  0  0  0  0  0  0  0  0  0  0  0
  -19.8047   10.8076   24.1531 H   0  0  0  0  0  0  0  0  0  0  0  0
  -18.2593   11.4565   23.5509 H   0  0  0  0  0  0  0  0  0  0  0  0
  -18.2750   10.4250   24.9800 H   0  0  0  0  0  0  0  0  0  0  0  0
  -19.1191   13.6841   24.7491 C   0  0  0  0  0  0  0  0  0  0  0  0
  -19.0367   13.8002   23.6996 H   0  0  0  0  0  0  0  0  0  0  0  0
  -19.3238   14.8021   25.5516 C   0  0  0  0  0  0  0  0  0  0  0  0
  -19.3928   15.7672   25.1202 H   0  0  0  0  0  0  0  0  0  0  0  0
  -16.5193   17.7166   26.8341 N   0  0  0  0  0  0  0  0  0  0  0  0
  -15.0805   17.4427   26.7078 C   0  0  0  0  0  0  0  0  0  0  0  0
  -14.6135   17.7778   27.6428 H   0  0  0  0  0  0  0  0  0  0  0  0
  -14.8781   16.3715   26.6158 H   0  0  0  0  0  0  0  0  0  0  0  0
  -14.4574   18.1785   25.5187 C   0  0  0  0  0  0  0  0  0  0  0  0
  -14.8717   17.8303   24.5668 H   0  0  0  0  0  0  0  0  0  0  0  0
  -13.3694   18.0653   25.5177 H   0  0  0  0  0  0  0  0  0  0  0  0
  -14.7597   19.6654   25.6243 N   0  0  0  0  0  0  0  0  0  0  0  0
  -14.3533   20.0025   26.5087 H   0  0  0  0  0  0  0  0  0  0  0  0
  -14.1050   20.4478   24.5233 C   0  0  0  0  0  0  0  0  0  0  0  0
  -14.3149   21.5077   24.6905 H   0  0  0  0  0  0  0  0  0  0  0  0
  -13.0275   20.2681   24.5750 H   0  0  0  0  0  0  0  0  0  0  0  0
  -14.5125   20.1139   23.5658 H   0  0  0  0  0  0  0  0  0  0  0  0
  -16.2571   19.9133   25.6827 C   0  0  0  0  0  0  0  0  0  0  0  0
  -16.6757   19.5840   24.7256 H   0  0  0  0  0  0  0  0  0  0  0  0
  -16.4084   20.9904   25.8029 H   0  0  0  0  0  0  0  0  0  0  0  0
  -16.8798   19.1409   26.8554 C   0  0  0  0  0  0  0  0  0  0  0  0
  -17.9608   19.2847   26.8211 H   0  0  0  0  0  0  0  0  0  0  0  0
  -16.5199   19.5475   27.8086 H   0  0  0  0  0  0  0  0  0  0  0  0
  1  2  2  0
  2  3  1  0
  2 21  1  0
  3  4  1  0
  3  5  1  0
  3  6  1  0
  6  7  1  0
  7  8  1  0
  7 19  2  0
  8  9  1  0
  8 10  2  0
 10 11  1  0
 10 12  1  0
 12 13  1  0
 12 17  2  0
 13 14  1  0
 13 15  1  0
 13 16  1  0
 17 18  1  0
 17 19  1  0
 19 20  1  0
 21 22  1  0
 21 37  1  0
 22 23  1  0
 22 24  1  0
 22 25  1  0
 25 26  1  0
 25 27  1  0
 25 28  1  0
 28 29  1  0
 28 30  1  0
 28 34  1  0
 30 31  1  0
 30 32  1  0
 30 33  1  0
 34 35  1  0
 34 36  1  0
 34 37  1  0
 37 38  1  0
 37 39  1  0
M  END
$$$$
