
     RDKit          3D

 27 28  0  0  0  0  0  0  0  0999 V2000
  -20.6404   13.8520   27.7959 F   0  0  0  0  0  0  0  0  0  0  0  0
  -19.9616   13.2007   26.8377 C   0  0  0  0  0  0  0  0  0  0  0  0
  -18.9675   13.8552   26.0830 C   0  0  0  0  0  0  0  0  0  0  0  0
  -18.6128   15.1860   26.2640 N   0  0  0  0  0  0  0  0  0  0  0  0
  -19.3437   15.8876   26.2746 H   0  0  0  0  0  0  0  0  0  0  0  0
  -17.2514   15.6564   26.4514 C   0  0  0  0  0  0  0  0  0  0  0  0
  -16.7497   15.0282   27.1977 H   0  0  0  0  0  0  0  0  0  0  0  0
  -16.6934   15.5527   25.5131 H   0  0  0  0  0  0  0  0  0  0  0  0
  -17.1540   17.0841   26.8951 C   0  0  0  0  0  0  0  0  0  0  0  0
  -16.0579   17.9324   26.7517 C   0  0  0  0  0  0  0  0  0  0  0  0
  -14.7372   17.6409   26.1442 C   0  0  0  0  0  0  0  0  0  0  0  0
  -14.8600   17.2272   25.1377 H   0  0  0  0  0  0  0  0  0  0  0  0
  -14.1914   16.9114   26.7519 H   0  0  0  0  0  0  0  0  0  0  0  0
  -14.1205   18.5420   26.0625 H   0  0  0  0  0  0  0  0  0  0  0  0
  -16.3153   19.1131   27.2399 N   0  0  0  0  0  0  0  0  0  0  0  0
  -17.5879   19.0343   27.6999 N   0  0  0  0  0  0  0  0  0  0  0  0
  -18.0733   19.8338   28.1483 H   0  0  0  0  0  0  0  0  0  0  0  0
  -18.1215   17.8122   27.4994 C   0  0  0  0  0  0  0  0  0  0  0  0
  -19.1093   17.5684   27.7910 H   0  0  0  0  0  0  0  0  0  0  0  0
  -18.2860   13.1279   25.1055 C   0  0  0  0  0  0  0  0  0  0  0  0
  -17.5254   13.5949   24.5369 H   0  0  0  0  0  0  0  0  0  0  0  0
  -18.6061   11.7900   24.8803 C   0  0  0  0  0  0  0  0  0  0  0  0
  -18.0873   11.2430   24.1341 H   0  0  0  0  0  0  0  0  0  0  0  0
  -19.6023   11.1587   25.6286 C   0  0  0  0  0  0  0  0  0  0  0  0
  -19.8366   10.1404   25.4482 H   0  0  0  0  0  0  0  0  0  0  0  0
  -20.2829   11.8692   26.6153 C   0  0  0  0  0  0  0  0  0  0  0  0
  -21.0366   11.4001   27.1948 H   0  0  0  0  0  0  0  0  0  0  0  0
  1  2  1  0
  2  3  1  0
  2 26  2  0
  3  4  1  0
  3 20  2  0
  4  5  1  0
  4  6  1  0
  6  7  1  0
  6  8  1  0
  6  9  1  0
  9 10  1  0
  9 18  2  0
 10 11  1  0
 10 15  2  0
 11 12  1  0
 11 13  1  0
 11 14  1  0
 15 16  1  0
 16 17  1  0
 16 18  1  0
 18 19  1  0
 20 21  1  0
 20 22  1  0
 22 23  1  0
 22 24  2  0
 24 25  1  0
 24 26  1  0
 26 27  1  0
M  END
$$$$
