
     RDKit          3D

 23 23  0  0  0  0  0  0  0  0999 V2000
  -20.2374   11.7515   26.3386 Cl  0  0  0  0  0  0  0  0  0  0  0  0
  -19.6796   13.3800   26.2971 C   0  0  0  0  0  0  0  0  0  0  0  0
  -18.8901   13.9039   25.2609 C   0  0  0  0  0  0  0  0  0  0  0  0
  -18.4259   13.1588   24.0718 C   0  0  0  0  0  0  0  0  0  0  0  0
  -19.0042   12.2868   23.4406 O   0  0  0  0  0  0  0  0  0  0  0  0
  -17.1942   13.4496   23.5830 N   0  0  0  0  0  0  0  0  0  0  0  0
  -16.8606   12.9322   22.7607 H   0  0  0  0  0  0  0  0  0  0  0  0
  -16.6194   14.1661   24.0446 H   0  0  0  0  0  0  0  0  0  0  0  0
  -18.5106   15.2044   25.3359 N   0  0  0  0  0  0  0  0  0  0  0  0
  -18.8751   15.9579   26.3619 C   0  0  0  0  0  0  0  0  0  0  0  0
  -18.4263   17.3968   26.3968 C   0  0  0  0  0  0  0  0  0  0  0  0
  -17.9332   17.6264   25.4437 H   0  0  0  0  0  0  0  0  0  0  0  0
  -19.6206   18.3379   26.5434 C   0  0  0  0  0  0  0  0  0  0  0  0
  -20.1486   18.1799   27.4913 H   0  0  0  0  0  0  0  0  0  0  0  0
  -20.3425   18.1842   25.7331 H   0  0  0  0  0  0  0  0  0  0  0  0
  -19.2962   19.3834   26.5108 H   0  0  0  0  0  0  0  0  0  0  0  0
  -17.4079   17.6226   27.5143 C   0  0  0  0  0  0  0  0  0  0  0  0
  -17.8422   17.4356   28.5027 H   0  0  0  0  0  0  0  0  0  0  0  0
  -17.0399   18.6545   27.4997 H   0  0  0  0  0  0  0  0  0  0  0  0
  -16.5459   16.9566   27.3992 H   0  0  0  0  0  0  0  0  0  0  0  0
  -19.6252   15.4798   27.3592 N   0  0  0  0  0  0  0  0  0  0  0  0
  -20.0282   14.2228   27.3458 C   0  0  0  0  0  0  0  0  0  0  0  0
  -20.6230   13.8630   28.1474 H   0  0  0  0  0  0  0  0  0  0  0  0
  1  2  1  0
  2  3  1  0
  2 22  2  0
  3  4  1  0
  3  9  2  0
  4  5  2  0
  4  6  1  0
  6  7  1  0
  6  8  1  0
  9 10  1  0
 10 11  1  0
 10 21  2  0
 11 12  1  0
 11 13  1  0
 11 17  1  0
 13 14  1  0
 13 15  1  0
 13 16  1  0
 17 18  1  0
 17 19  1  0
 17 20  1  0
 21 22  1  0
 22 23  1  0
M  END
$$$$
