
     RDKit          3D

 32 33  0  0  0  0  0  0  0  0999 V2000
  -21.8805   14.4493   28.6818 O   0  0  0  0  0  0  0  0  0  0  0  0
  -21.3374   13.4441   28.2675 C   0  0  0  0  0  0  0  0  0  0  0  0
  -21.7415   12.2081   28.6861 N   0  0  0  0  0  0  0  0  0  0  0  0
  -21.2100   11.4345   28.2747 H   0  0  0  0  0  0  0  0  0  0  0  0
  -22.7531   11.8901   29.5795 C   0  0  0  0  0  0  0  0  0  0  0  0
  -23.6113   12.7346   30.1879 C   0  0  0  0  0  0  0  0  0  0  0  0
  -23.7239   13.7854   30.1340 H   0  0  0  0  0  0  0  0  0  0  0  0
  -24.3942   11.9411   30.9575 N   0  0  0  0  0  0  0  0  0  0  0  0
  -25.4786   12.3443   31.8277 C   0  0  0  0  0  0  0  0  0  0  0  0
  -26.1194   13.0291   31.2619 H   0  0  0  0  0  0  0  0  0  0  0  0
  -26.0666   11.4510   32.0655 H   0  0  0  0  0  0  0  0  0  0  0  0
  -24.9796   13.0012   33.1025 C   0  0  0  0  0  0  0  0  0  0  0  0
  -24.4011   13.9045   32.8821 H   0  0  0  0  0  0  0  0  0  0  0  0
  -24.3338   12.3220   33.6697 H   0  0  0  0  0  0  0  0  0  0  0  0
  -25.8228   13.2829   33.7402 H   0  0  0  0  0  0  0  0  0  0  0  0
  -24.0584   10.6220   30.8488 N   0  0  0  0  0  0  0  0  0  0  0  0
  -23.0561   10.6010   30.0083 C   0  0  0  0  0  0  0  0  0  0  0  0
  -22.5614    9.7135   29.7099 H   0  0  0  0  0  0  0  0  0  0  0  0
  -20.1773   13.4892   27.2842 C   0  0  0  0  0  0  0  0  0  0  0  0
  -19.9218   14.5469   27.1425 H   0  0  0  0  0  0  0  0  0  0  0  0
  -18.9456   12.7275   27.7913 C   0  0  0  0  0  0  0  0  0  0  0  0
  -18.1940   13.4096   28.2026 H   0  0  0  0  0  0  0  0  0  0  0  0
  -19.1980   12.0144   28.5836 H   0  0  0  0  0  0  0  0  0  0  0  0
  -18.4065   11.9879   26.5751 C   0  0  0  0  0  0  0  0  0  0  0  0
  -17.7654   12.6519   25.9834 H   0  0  0  0  0  0  0  0  0  0  0  0
  -17.8223   11.1054   26.8503 H   0  0  0  0  0  0  0  0  0  0  0  0
  -19.6578   11.6333   25.7916 C   0  0  0  0  0  0  0  0  0  0  0  0
  -20.1604   10.7733   26.2475 H   0  0  0  0  0  0  0  0  0  0  0  0
  -19.4388   11.3851   24.7493 H   0  0  0  0  0  0  0  0  0  0  0  0
  -20.5224   12.8818   25.9161 C   0  0  0  0  0  0  0  0  0  0  0  0
  -21.5849   12.6535   25.7855 H   0  0  0  0  0  0  0  0  0  0  0  0
  -20.2440   13.5924   25.1271 H   0  0  0  0  0  0  0  0  0  0  0  0
  1  2  2  0
  2  3  1  0
  2 19  1  0
  3  4  1  0
  3  5  1  0
  5  6  2  0
  5 17  1  0
  6  7  1  0
  6  8  1  0
  8  9  1  0
  8 16  1  0
  9 10  1  0
  9 11  1  0
  9 12  1  0
 12 13  1  0
 12 14  1  0
 12 15  1  0
 16 17  2  0
 17 18  1  0
 19 20  1  0
 19 21  1  0
 19 30  1  0
 21 22  1  0
 21 23  1  0
 21 24  1  0
 24 25  1  0
 24 26  1  0
 24 27  1  0
 27 28  1  0
 27 29  1  0
 27 30  1  0
 30 31  1  0
 30 32  1  0
M  END
$$$$
