
     RDKit          3D

 32 33  0  0  0  0  0  0  0  0999 V2000
  -25.3250   14.4903   29.6321 O   0  0  0  0  0  0  0  0  0  0  0  0
  -25.8134   13.5805   28.9784 C   0  0  0  0  0  0  0  0  0  0  0  0
  -27.1417   13.3140   28.8706 O   0  0  0  0  0  0  0  0  0  0  0  0
  -27.9904   14.2775   29.4987 C   0  0  0  0  0  0  0  0  0  0  0  0
  -27.8401   15.2666   29.0560 H   0  0  0  0  0  0  0  0  0  0  0  0
  -27.8046   14.3028   30.5777 H   0  0  0  0  0  0  0  0  0  0  0  0
  -29.0273   13.9747   29.3318 H   0  0  0  0  0  0  0  0  0  0  0  0
  -25.1121   12.6560   28.2670 N   0  0  0  0  0  0  0  0  0  0  0  0
  -25.7005   11.9305   27.8470 H   0  0  0  0  0  0  0  0  0  0  0  0
  -23.7203   12.5612   28.0497 C   0  0  0  0  0  0  0  0  0  0  0  0
  -22.8327   13.6084   28.3087 C   0  0  0  0  0  0  0  0  0  0  0  0
  -23.1835   14.5348   28.6792 H   0  0  0  0  0  0  0  0  0  0  0  0
  -21.4751   13.4291   28.0664 C   0  0  0  0  0  0  0  0  0  0  0  0
  -20.8024   14.2250   28.2618 H   0  0  0  0  0  0  0  0  0  0  0  0
  -20.9952   12.2175   27.5650 C   0  0  0  0  0  0  0  0  0  0  0  0
  -19.5203   12.0374   27.2838 C   0  0  0  0  0  0  0  0  0  0  0  0
  -19.3222   10.9839   27.0457 H   0  0  0  0  0  0  0  0  0  0  0  0
  -18.9402   12.2272   28.1967 H   0  0  0  0  0  0  0  0  0  0  0  0
  -19.0102   12.9192   26.1723 C   0  0  0  0  0  0  0  0  0  0  0  0
  -18.9824   12.4777   24.8546 C   0  0  0  0  0  0  0  0  0  0  0  0
  -19.3374   11.5134   24.6013 H   0  0  0  0  0  0  0  0  0  0  0  0
  -18.4832   13.3089   23.8570 C   0  0  0  0  0  0  0  0  0  0  0  0
  -18.4574   12.9790   22.8488 H   0  0  0  0  0  0  0  0  0  0  0  0
  -18.0245   14.5298   24.1237 N   0  0  0  0  0  0  0  0  0  0  0  0
  -18.0386   14.9734   25.3793 C   0  0  0  0  0  0  0  0  0  0  0  0
  -17.6642   15.9486   25.5667 H   0  0  0  0  0  0  0  0  0  0  0  0
  -18.5227   14.1955   26.4261 C   0  0  0  0  0  0  0  0  0  0  0  0
  -18.5127   14.5789   27.4140 H   0  0  0  0  0  0  0  0  0  0  0  0
  -21.8947   11.1823   27.2982 C   0  0  0  0  0  0  0  0  0  0  0  0
  -21.5445   10.2592   26.9133 H   0  0  0  0  0  0  0  0  0  0  0  0
  -23.2545   11.3509   27.5370 C   0  0  0  0  0  0  0  0  0  0  0  0
  -23.9312   10.5609   27.3371 H   0  0  0  0  0  0  0  0  0  0  0  0
  1  2  2  0
  2  3  1  0
  2  8  1  0
  3  4  1  0
  4  5  1  0
  4  6  1  0
  4  7  1  0
  8  9  1  0
  8 10  1  0
 10 11  1  0
 10 31  2  0
 11 12  1  0
 11 13  2  0
 13 14  1  0
 13 15  1  0
 15 16  1  0
 15 29  2  0
 16 17  1  0
 16 18  1  0
 16 19  1  0
 19 20  1  0
 19 27  2  0
 20 21  1  0
 20 22  2  0
 22 23  1  0
 22 24  1  0
 24 25  2  0
 25 26  1  0
 25 27  1  0
 27 28  1  0
 29 30  1  0
 29 31  1  0
 31 32  1  0
M  END
$$$$
