
     RDKit          3D

 20 20  0  0  0  0  0  0  0  0999 V2000
  -19.6978   15.1678   27.5004 O   0  0  0  0  0  0  0  0  0  0  0  0
  -19.1902   14.4362   26.6280 C   0  0  0  0  0  0  0  0  0  0  0  0
  -19.4554   13.0535   26.6601 N   0  0  0  0  0  0  0  0  0  0  0  0
  -20.3158   12.5152   27.7092 C   0  0  0  0  0  0  0  0  0  0  0  0
  -21.1756   12.0162   27.2521 H   0  0  0  0  0  0  0  0  0  0  0  0
  -20.6957   13.2944   28.3761 H   0  0  0  0  0  0  0  0  0  0  0  0
  -19.7445   11.8033   28.3136 H   0  0  0  0  0  0  0  0  0  0  0  0
  -18.8906   12.1858   25.6976 C   0  0  0  0  0  0  0  0  0  0  0  0
  -19.1690   10.7103   25.7714 C   0  0  0  0  0  0  0  0  0  0  0  0
  -18.8075   10.2943   26.7176 H   0  0  0  0  0  0  0  0  0  0  0  0
  -18.6690   10.1613   24.9660 H   0  0  0  0  0  0  0  0  0  0  0  0
  -20.2407   10.5105   25.6799 H   0  0  0  0  0  0  0  0  0  0  0  0
  -18.1079   12.7013   24.7019 C   0  0  0  0  0  0  0  0  0  0  0  0
  -17.6866   12.0571   23.9739 H   0  0  0  0  0  0  0  0  0  0  0  0
  -17.8296   14.0921   24.6157 C   0  0  0  0  0  0  0  0  0  0  0  0
  -17.2140   14.4613   23.8366 H   0  0  0  0  0  0  0  0  0  0  0  0
  -18.3465   14.9384   25.5512 C   0  0  0  0  0  0  0  0  0  0  0  0
  -18.1128   16.2913   25.5394 N   0  0  0  0  0  0  0  0  0  0  0  0
  -17.5397   16.7208   24.8275 H   0  0  0  0  0  0  0  0  0  0  0  0
  -18.5408   16.8468   26.2764 H   0  0  0  0  0  0  0  0  0  0  0  0
  1  2  2  0
  2  3  1  0
  2 17  1  0
  3  4  1  0
  3  8  1  0
  4  5  1  0
  4  6  1  0
  4  7  1  0
  8  9  1  0
  8 13  2  0
  9 10  1  0
  9 11  1  0
  9 12  1  0
 13 14  1  0
 13 15  1  0
 15 16  1  0
 15 17  2  0
 17 18  1  0
 18 19  1  0
 18 20  1  0
M  END
$$$$
