
     RDKit          3D

 16 16  0  0  0  0  0  0  0  0999 V2000
  -26.0919   14.8960   29.1672 O   0  0  0  0  0  0  0  0  0  0  0  0
  -25.9193   13.5148   29.4846 C   0  0  0  0  0  0  0  0  0  0  0  0
  -25.6018   13.4144   30.5298 H   0  0  0  0  0  0  0  0  0  0  0  0
  -26.8642   12.9764   29.3491 H   0  0  0  0  0  0  0  0  0  0  0  0
  -24.8658   12.9714   28.5805 C   0  0  0  0  0  0  0  0  0  0  0  0
  -23.2334   12.8696   29.0896 S   0  0  0  0  0  0  0  0  0  0  0  0
  -22.9003   12.2342   27.5473 C   0  0  0  0  0  0  0  0  0  0  0  0
  -21.6467   11.8821   27.2155 N   0  0  0  0  0  0  0  0  0  0  0  0
  -20.8703   11.9772   27.8580 H   0  0  0  0  0  0  0  0  0  0  0  0
  -21.4487   11.5043   26.2968 H   0  0  0  0  0  0  0  0  0  0  0  0
  -23.9156   12.1259   26.7487 N   0  0  0  0  0  0  0  0  0  0  0  0
  -25.0702   12.5622   27.3646 N   0  0  0  0  0  0  0  0  0  0  0  0
  -27.0961   15.4963   29.9731 C   0  0  0  0  0  0  0  0  0  0  0  0
  -27.1842   16.5481   29.6868 H   0  0  0  0  0  0  0  0  0  0  0  0
  -26.8208   15.4443   31.0307 H   0  0  0  0  0  0  0  0  0  0  0  0
  -28.0615   15.0079   29.8093 H   0  0  0  0  0  0  0  0  0  0  0  0
  1  2  1  0
  1 13  1  0
  2  3  1  0
  2  4  1  0
  2  5  1  0
  5  6  1  0
  5 12  2  0
  6  7  1  0
  7  8  1  0
  7 11  2  0
  8  9  1  0
  8 10  1  0
 11 12  1  0
 13 14  1  0
 13 15  1  0
 13 16  1  0
M  END
$$$$
