
     RDKit          3D

 24 25  0  0  0  0  0  0  0  0999 V2000
  -16.1623   16.9463   27.2016 S   0  0  0  0  0  0  0  0  0  0  0  0
  -15.5473   16.3888   26.0133 O   0  0  0  0  0  0  0  0  0  0  0  0
  -15.7831   16.4783   28.5247 O   0  0  0  0  0  0  0  0  0  0  0  0
  -17.9358   16.7957   27.0615 C   0  0  0  0  0  0  0  0  0  0  0  0
  -18.3674   16.9837   28.0485 H   0  0  0  0  0  0  0  0  0  0  0  0
  -18.2806   17.5564   26.3557 H   0  0  0  0  0  0  0  0  0  0  0  0
  -18.2893   15.4274   26.5945 C   0  0  0  0  0  0  0  0  0  0  0  0
  -17.7610   14.8675   25.4630 N   0  0  0  0  0  0  0  0  0  0  0  0
  -17.1105   15.3177   24.8034 H   0  0  0  0  0  0  0  0  0  0  0  0
  -18.2460   13.6065   25.3511 C   0  0  0  0  0  0  0  0  0  0  0  0
  -19.0674   13.4471   26.4478 C   0  0  0  0  0  0  0  0  0  0  0  0
  -19.0725   14.6003   27.2037 N   0  0  0  0  0  0  0  0  0  0  0  0
  -19.7324   12.2272   26.6284 C   0  0  0  0  0  0  0  0  0  0  0  0
  -20.3657   12.0985   27.4668 H   0  0  0  0  0  0  0  0  0  0  0  0
  -19.5487   11.2108   25.6994 C   0  0  0  0  0  0  0  0  0  0  0  0
  -20.0473   10.2846   25.8255 H   0  0  0  0  0  0  0  0  0  0  0  0
  -18.7004   11.3988   24.5834 C   0  0  0  0  0  0  0  0  0  0  0  0
  -18.5736   10.6090   23.8863 H   0  0  0  0  0  0  0  0  0  0  0  0
  -18.0384   12.6016   24.3964 C   0  0  0  0  0  0  0  0  0  0  0  0
  -17.4008   12.7564   23.5645 H   0  0  0  0  0  0  0  0  0  0  0  0
  -15.9124   18.7030   27.1608 C   0  0  0  0  0  0  0  0  0  0  0  0
  -16.2867   19.0897   26.2114 H   0  0  0  0  0  0  0  0  0  0  0  0
  -14.8416   18.8973   27.2486 H   0  0  0  0  0  0  0  0  0  0  0  0
  -16.4442   19.1556   28.0006 H   0  0  0  0  0  0  0  0  0  0  0  0
  1  2  2  0
  1  3  2  0
  1  4  1  0
  1 21  1  0
  4  5  1  0
  4  6  1  0
  4  7  1  0
  7  8  1  0
  7 12  2  0
  8  9  1  0
  8 10  1  0
 10 11  1  0
 10 19  2  0
 11 12  1  0
 11 13  2  0
 13 14  1  0
 13 15  1  0
 15 16  1  0
 15 17  2  0
 17 18  1  0
 17 19  1  0
 19 20  1  0
 21 22  1  0
 21 23  1  0
 21 24  1  0
M  END
$$$$
