
     RDKit          3D

 25 27  0  0  0  0  0  0  0  0999 V2000
  -19.0455   17.0783   27.9491 O   0  0  0  0  0  0  0  0  0  0  0  0
  -18.4527   16.6520   26.9598 C   0  0  0  0  0  0  0  0  0  0  0  0
  -17.6362   17.5003   26.2737 N   0  0  0  0  0  0  0  0  0  0  0  0
  -17.1517   17.0874   25.4598 H   0  0  0  0  0  0  0  0  0  0  0  0
  -17.4172   18.8673   26.6099 C   0  0  0  0  0  0  0  0  0  0  0  0
  -17.1129   19.0059   27.6447 H   0  0  0  0  0  0  0  0  0  0  0  0
  -18.2748   19.9510   26.0143 C   0  0  0  0  0  0  0  0  0  0  0  0
  -19.0343   19.6780   25.2919 H   0  0  0  0  0  0  0  0  0  0  0  0
  -18.5440   20.7864   26.6498 H   0  0  0  0  0  0  0  0  0  0  0  0
  -16.8386   19.8200   25.6007 C   0  0  0  0  0  0  0  0  0  0  0  0
  -16.1331   20.5608   25.9568 H   0  0  0  0  0  0  0  0  0  0  0  0
  -16.6280   19.4467   24.6050 H   0  0  0  0  0  0  0  0  0  0  0  0
  -18.5535   15.2970   26.4696 C   0  0  0  0  0  0  0  0  0  0  0  0
  -19.4761   14.3600   26.8623 C   0  0  0  0  0  0  0  0  0  0  0  0
  -19.1683   13.2435   26.1215 N   0  0  0  0  0  0  0  0  0  0  0  0
  -18.1103   13.4339   25.2892 N   0  0  0  0  0  0  0  0  0  0  0  0
  -17.7526   14.6756   25.5124 C   0  0  0  0  0  0  0  0  0  0  0  0
  -16.9415   15.1438   25.0122 H   0  0  0  0  0  0  0  0  0  0  0  0
  -19.9034   12.0583   26.2488 C   0  0  0  0  0  0  0  0  0  0  0  0
  -19.5907   11.2522   25.6374 H   0  0  0  0  0  0  0  0  0  0  0  0
  -20.9354   12.0815   27.1471 C   0  0  0  0  0  0  0  0  0  0  0  0
  -21.5371   11.2244   27.3017 H   0  0  0  0  0  0  0  0  0  0  0  0
  -21.2255   13.2662   27.9012 C   0  0  0  0  0  0  0  0  0  0  0  0
  -22.0298   13.2599   28.5915 H   0  0  0  0  0  0  0  0  0  0  0  0
  -20.5371   14.3683   27.7778 N   0  0  0  0  0  0  0  0  0  0  0  0
  1  2  2  0
  2  3  1  0
  2 13  1  0
  3  4  1  0
  3  5  1  0
  5  6  1  0
  5  7  1  0
  5 10  1  0
  7  8  1  0
  7  9  1  0
  7 10  1  0
 10 11  1  0
 10 12  1  0
 13 14  2  0
 13 17  1  0
 14 15  1  0
 14 25  1  0
 15 16  1  0
 15 19  1  0
 16 17  2  0
 17 18  1  0
 19 20  1  0
 19 21  2  0
 21 22  1  0
 21 23  1  0
 23 24  1  0
 23 25  2  0
M  END
$$$$
