
     RDKit          3D

 30 31  0  0  0  0  0  0  0  0999 V2000
  -24.2096   14.5078   31.5247 N   0  0  0  0  0  0  0  0  0  0  0  0
  -23.6037   15.7624   32.0110 C   0  0  0  0  0  0  0  0  0  0  0  0
  -23.1824   15.6457   33.0133 H   0  0  0  0  0  0  0  0  0  0  0  0
  -22.7398   16.0232   31.3866 H   0  0  0  0  0  0  0  0  0  0  0  0
  -24.6011   16.9093   31.9456 C   0  0  0  0  0  0  0  0  0  0  0  0
  -25.5097   16.6995   32.5161 H   0  0  0  0  0  0  0  0  0  0  0  0
  -24.9036   17.1059   30.9111 H   0  0  0  0  0  0  0  0  0  0  0  0
  -24.1518   17.8250   32.3437 H   0  0  0  0  0  0  0  0  0  0  0  0
  -24.8075   13.6956   32.6034 C   0  0  0  0  0  0  0  0  0  0  0  0
  -24.0438   13.3582   33.3126 H   0  0  0  0  0  0  0  0  0  0  0  0
  -25.4999   14.3046   33.1987 H   0  0  0  0  0  0  0  0  0  0  0  0
  -25.5672   12.5076   32.0298 C   0  0  0  0  0  0  0  0  0  0  0  0
  -24.9088   11.8458   31.4593 H   0  0  0  0  0  0  0  0  0  0  0  0
  -26.3672   12.8382   31.3600 H   0  0  0  0  0  0  0  0  0  0  0  0
  -26.0192   11.9231   32.8372 H   0  0  0  0  0  0  0  0  0  0  0  0
  -24.2254   14.1006   30.1435 C   0  0  0  0  0  0  0  0  0  0  0  0
  -25.1696   14.6419   29.1968 N   0  0  0  0  0  0  0  0  0  0  0  0
  -26.1463   15.5592   29.3717 N   0  0  0  0  0  0  0  0  0  0  0  0
  -26.6610   15.6495   28.1843 C   0  0  0  0  0  0  0  0  0  0  0  0
  -27.4727   16.3008   27.9702 H   0  0  0  0  0  0  0  0  0  0  0  0
  -26.1087   14.8733   27.2460 N   0  0  0  0  0  0  0  0  0  0  0  0
  -25.1678   14.2394   27.8842 C   0  0  0  0  0  0  0  0  0  0  0  0
  -24.2798   13.3017   27.3851 N   0  0  0  0  0  0  0  0  0  0  0  0
  -23.4142   12.7883   28.1971 C   0  0  0  0  0  0  0  0  0  0  0  0
  -22.4378   11.7680   27.6795 C   0  0  0  0  0  0  0  0  0  0  0  0
  -21.7722   11.4127   28.4695 H   0  0  0  0  0  0  0  0  0  0  0  0
  -21.8361   12.2159   26.8836 H   0  0  0  0  0  0  0  0  0  0  0  0
  -22.9897   10.9157   27.2717 H   0  0  0  0  0  0  0  0  0  0  0  0
  -23.3419   13.1677   29.6327 C   0  0  0  0  0  0  0  0  0  0  0  0
  -22.6240   12.7131   30.2561 H   0  0  0  0  0  0  0  0  0  0  0  0
  1  2  1  0
  1  9  1  0
  1 16  1  0
  2  3  1  0
  2  4  1  0
  2  5  1  0
  5  6  1  0
  5  7  1  0
  5  8  1  0
  9 10  1  0
  9 11  1  0
  9 12  1  0
 12 13  1  0
 12 14  1  0
 12 15  1  0
 16 17  1  0
 16 29  2  0
 17 18  1  0
 17 22  1  0
 18 19  2  0
 19 20  1  0
 19 21  1  0
 21 22  2  0
 22 23  1  0
 23 24  2  0
 24 25  1  0
 24 29  1  0
 25 26  1  0
 25 27  1  0
 25 28  1  0
 29 30  1  0
M  END
$$$$
