
     RDKit          3D

 26 28  0  0  0  0  0  0  0  0999 V2000
  -19.3847   16.8894   27.7582 O   0  0  0  0  0  0  0  0  0  0  0  0
  -18.7835   16.5190   26.7549 C   0  0  0  0  0  0  0  0  0  0  0  0
  -17.8974   17.3946   26.1795 N   0  0  0  0  0  0  0  0  0  0  0  0
  -17.3096   17.0542   25.4131 H   0  0  0  0  0  0  0  0  0  0  0  0
  -17.7283   18.7458   26.6120 C   0  0  0  0  0  0  0  0  0  0  0  0
  -17.5128   18.8252   27.6755 H   0  0  0  0  0  0  0  0  0  0  0  0
  -18.5442   19.8574   26.0100 C   0  0  0  0  0  0  0  0  0  0  0  0
  -19.2359   19.6241   25.2094 H   0  0  0  0  0  0  0  0  0  0  0  0
  -18.8774   20.6513   26.6680 H   0  0  0  0  0  0  0  0  0  0  0  0
  -17.0769   19.7611   25.7136 C   0  0  0  0  0  0  0  0  0  0  0  0
  -16.4120   20.4816   26.1742 H   0  0  0  0  0  0  0  0  0  0  0  0
  -16.7750   19.4489   24.7212 H   0  0  0  0  0  0  0  0  0  0  0  0
  -18.9353   15.1632   26.1830 C   0  0  0  0  0  0  0  0  0  0  0  0
  -19.2567   14.1063   27.0560 C   0  0  0  0  0  0  0  0  0  0  0  0
  -19.3814   14.2791   28.0934 H   0  0  0  0  0  0  0  0  0  0  0  0
  -19.4065   12.8320   26.5350 C   0  0  0  0  0  0  0  0  0  0  0  0
  -19.7095   11.7109   27.2399 O   0  0  0  0  0  0  0  0  0  0  0  0
  -19.7289   10.7241   26.1875 C   0  0  0  0  0  0  0  0  0  0  0  0
  -18.9830    9.9548   26.4144 H   0  0  0  0  0  0  0  0  0  0  0  0
  -20.7201   10.2569   26.1628 H   0  0  0  0  0  0  0  0  0  0  0  0
  -19.4445   11.2723   24.8832 O   0  0  0  0  0  0  0  0  0  0  0  0
  -19.2563   12.5825   25.1933 C   0  0  0  0  0  0  0  0  0  0  0  0
  -18.9505   13.5989   24.2995 C   0  0  0  0  0  0  0  0  0  0  0  0
  -18.8462   13.3886   23.2656 H   0  0  0  0  0  0  0  0  0  0  0  0
  -18.7942   14.8924   24.7991 C   0  0  0  0  0  0  0  0  0  0  0  0
  -18.5790   15.6811   24.1243 H   0  0  0  0  0  0  0  0  0  0  0  0
  1  2  2  0
  2  3  1  0
  2 13  1  0
  3  4  1  0
  3  5  1  0
  5  6  1  0
  5  7  1  0
  5 10  1  0
  7  8  1  0
  7  9  1  0
  7 10  1  0
 10 11  1  0
 10 12  1  0
 13 14  1  0
 13 25  2  0
 14 15  1  0
 14 16  2  0
 16 17  1  0
 16 22  1  0
 17 18  1  0
 18 19  1  0
 18 20  1  0
 18 21  1  0
 21 22  1  0
 22 23  2  0
 23 24  1  0
 23 25  1  0
 25 26  1  0
M  END
$$$$
