
     RDKit          3D

 16 17  0  0  0  0  0  0  0  0999 V2000
  -17.8096   15.0264   25.3464 Br  0  0  0  0  0  0  0  0  0  0  0  0
  -18.5891   13.2990   25.3710 C   0  0  0  0  0  0  0  0  0  0  0  0
  -19.6415   12.9326   26.2540 C   0  0  0  0  0  0  0  0  0  0  0  0
  -20.1352   11.6083   26.1699 C   0  0  0  0  0  0  0  0  0  0  0  0
  -19.6280   10.7095   25.2777 N   0  0  0  0  0  0  0  0  0  0  0  0
  -18.6643   11.0611   24.4759 C   0  0  0  0  0  0  0  0  0  0  0  0
  -18.2898   10.3398   23.7911 H   0  0  0  0  0  0  0  0  0  0  0  0
  -18.1141   12.3570   24.4935 C   0  0  0  0  0  0  0  0  0  0  0  0
  -17.3306   12.5939   23.8202 H   0  0  0  0  0  0  0  0  0  0  0  0
  -21.1432   11.1688   26.9776 N   0  0  0  0  0  0  0  0  0  0  0  0
  -21.6748   11.9760   27.8530 C   0  0  0  0  0  0  0  0  0  0  0  0
  -22.4578   11.6059   28.4684 H   0  0  0  0  0  0  0  0  0  0  0  0
  -21.2413   13.3107   28.0011 C   0  0  0  0  0  0  0  0  0  0  0  0
  -21.7064   13.9269   28.7271 H   0  0  0  0  0  0  0  0  0  0  0  0
  -20.2310   13.7979   27.2117 C   0  0  0  0  0  0  0  0  0  0  0  0
  -19.9037   14.7995   27.3211 H   0  0  0  0  0  0  0  0  0  0  0  0
  1  2  1  0
  2  3  1  0
  2  8  2  0
  3  4  1  0
  3 15  2  0
  4  5  1  0
  4 10  2  0
  5  6  2  0
  6  7  1  0
  6  8  1  0
  8  9  1  0
 10 11  1  0
 11 12  1  0
 11 13  2  0
 13 14  1  0
 13 15  1  0
 15 16  1  0
M  END
$$$$
