
     RDKit          3D

 35 37  0  0  0  0  0  0  0  0999 V2000
  -17.3551   21.3351   26.0610 F   0  0  0  0  0  0  0  0  0  0  0  0
  -17.4489   19.9978   26.0564 C   0  0  0  0  0  0  0  0  0  0  0  0
  -16.2829   19.2429   26.0865 C   0  0  0  0  0  0  0  0  0  0  0  0
  -15.3399   19.7236   26.1132 H   0  0  0  0  0  0  0  0  0  0  0  0
  -16.3785   17.8545   26.0804 C   0  0  0  0  0  0  0  0  0  0  0  0
  -15.4953   17.2784   26.1034 H   0  0  0  0  0  0  0  0  0  0  0  0
  -17.6416   17.2374   26.0337 C   0  0  0  0  0  0  0  0  0  0  0  0
  -17.7426   15.8521   26.0097 N   0  0  0  0  0  0  0  0  0  0  0  0
  -18.2439   15.1136   24.8409 C   0  0  0  0  0  0  0  0  0  0  0  0
  -18.6079   15.7657   24.0406 H   0  0  0  0  0  0  0  0  0  0  0  0
  -17.4079   14.5428   24.4177 H   0  0  0  0  0  0  0  0  0  0  0  0
  -19.3573   14.1406   25.2604 C   0  0  0  0  0  0  0  0  0  0  0  0
  -19.6673   13.5426   24.4004 H   0  0  0  0  0  0  0  0  0  0  0  0
  -20.2347   14.7007   25.6040 H   0  0  0  0  0  0  0  0  0  0  0  0
  -18.9252   13.2947   26.3813 N   0  0  0  0  0  0  0  0  0  0  0  0
  -18.9643   11.9203   26.3894 C   0  0  0  0  0  0  0  0  0  0  0  0
  -18.5887   11.3296   27.3853 O   0  0  0  0  0  0  0  0  0  0  0  0
  -19.4626   11.1961   25.1984 C   0  0  0  0  0  0  0  0  0  0  0  0
  -20.5039   11.3951   24.9645 H   0  0  0  0  0  0  0  0  0  0  0  0
  -18.9965    9.7844   24.9198 C   0  0  0  0  0  0  0  0  0  0  0  0
  -18.2785    9.3368   25.5979 H   0  0  0  0  0  0  0  0  0  0  0  0
  -19.7169    9.0852   24.5131 H   0  0  0  0  0  0  0  0  0  0  0  0
  -18.5309   10.9074   24.0442 C   0  0  0  0  0  0  0  0  0  0  0  0
  -17.4926   11.2097   24.1267 H   0  0  0  0  0  0  0  0  0  0  0  0
  -18.9335   10.9689   23.0403 H   0  0  0  0  0  0  0  0  0  0  0  0
  -18.4330   14.0461   27.5429 C   0  0  0  0  0  0  0  0  0  0  0  0
  -19.2892   14.5979   27.9476 H   0  0  0  0  0  0  0  0  0  0  0  0
  -18.0721   13.3775   28.3308 H   0  0  0  0  0  0  0  0  0  0  0  0
  -17.3145   15.0275   27.1511 C   0  0  0  0  0  0  0  0  0  0  0  0
  -16.4124   14.4732   26.8672 H   0  0  0  0  0  0  0  0  0  0  0  0
  -17.0736   15.6282   28.0352 H   0  0  0  0  0  0  0  0  0  0  0  0
  -18.8042   18.0255   26.0258 C   0  0  0  0  0  0  0  0  0  0  0  0
  -19.7572   17.5668   26.0381 H   0  0  0  0  0  0  0  0  0  0  0  0
  -18.7076   19.4137   26.0289 C   0  0  0  0  0  0  0  0  0  0  0  0
  -19.5751   20.0196   26.0199 H   0  0  0  0  0  0  0  0  0  0  0  0
  1  2  1  0
  2  3  1  0
  2 34  2  0
  3  4  1  0
  3  5  2  0
  5  6  1  0
  5  7  1  0
  7  8  1  0
  7 32  2  0
  8  9  1  0
  8 29  1  0
  9 10  1  0
  9 11  1  0
  9 12  1  0
 12 13  1  0
 12 14  1  0
 12 15  1  0
 15 16  1  0
 15 26  1  0
 16 17  2  0
 16 18  1  0
 18 19  1  0
 18 20  1  0
 18 23  1  0
 20 21  1  0
 20 22  1  0
 20 23  1  0
 23 24  1  0
 23 25  1  0
 26 27  1  0
 26 28  1  0
 26 29  1  0
 29 30  1  0
 29 31  1  0
 32 33  1  0
 32 34  1  0
 34 35  1  0
M  END
$$$$
