
     RDKit          3D

 17 18  0  0  0  0  0  0  0  0999 V2000
  -24.7227   17.4506   30.7188 Br  0  0  0  0  0  0  0  0  0  0  0  0
  -24.7766   15.9278   29.5990 C   0  0  0  0  0  0  0  0  0  0  0  0
  -23.7489   14.9892   29.6528 C   0  0  0  0  0  0  0  0  0  0  0  0
  -22.9290   15.1095   30.3110 H   0  0  0  0  0  0  0  0  0  0  0  0
  -23.8331   13.8891   28.8100 C   0  0  0  0  0  0  0  0  0  0  0  0
  -22.9346   12.8390   28.6924 N   0  0  0  0  0  0  0  0  0  0  0  0
  -22.0583   12.7068   29.2118 H   0  0  0  0  0  0  0  0  0  0  0  0
  -23.3493   11.9443   27.7646 C   0  0  0  0  0  0  0  0  0  0  0  0
  -22.6955   10.9576   27.5195 O   0  0  0  0  0  0  0  0  0  0  0  0
  -24.6751   12.4184   27.1741 C   0  0  0  0  0  0  0  0  0  0  0  0
  -24.5612   12.6005   26.1031 H   0  0  0  0  0  0  0  0  0  0  0  0
  -25.4587   11.6880   27.3885 H   0  0  0  0  0  0  0  0  0  0  0  0
  -24.8820   13.6915   27.9348 C   0  0  0  0  0  0  0  0  0  0  0  0
  -25.9093   14.6273   27.8823 C   0  0  0  0  0  0  0  0  0  0  0  0
  -26.7257   14.4949   27.2178 H   0  0  0  0  0  0  0  0  0  0  0  0
  -25.8533   15.7464   28.7174 C   0  0  0  0  0  0  0  0  0  0  0  0
  -26.6300   16.4663   28.6864 H   0  0  0  0  0  0  0  0  0  0  0  0
  1  2  1  0
  2  3  1  0
  2 16  2  0
  3  4  1  0
  3  5  2  0
  5  6  1  0
  5 13  1  0
  6  7  1  0
  6  8  1  0
  8  9  2  0
  8 10  1  0
 10 11  1  0
 10 12  1  0
 10 13  1  0
 13 14  2  0
 14 15  1  0
 14 16  1  0
 16 17  1  0
M  END
$$$$
