
     RDKit          3D

 27 27  0  0  0  0  0  0  0  0999 V2000
  -19.4419   11.2361   24.6755 S   0  0  0  0  0  0  0  0  0  0  0  0
  -19.7662   10.3901   25.8030 O   0  0  0  0  0  0  0  0  0  0  0  0
  -20.3396   11.3918   23.5519 O   0  0  0  0  0  0  0  0  0  0  0  0
  -17.9686   10.6947   24.0593 N   0  0  0  0  0  0  0  0  0  0  0  0
  -17.5789   11.3379   23.3663 H   0  0  0  0  0  0  0  0  0  0  0  0
  -18.0164    9.7240   23.7400 H   0  0  0  0  0  0  0  0  0  0  0  0
  -19.0089   12.8306   25.2735 C   0  0  0  0  0  0  0  0  0  0  0  0
  -19.4961   13.2872   26.5018 C   0  0  0  0  0  0  0  0  0  0  0  0
  -20.1084   12.6499   27.0919 H   0  0  0  0  0  0  0  0  0  0  0  0
  -19.1958   14.5676   26.9520 C   0  0  0  0  0  0  0  0  0  0  0  0
  -19.5776   14.8998   27.8846 H   0  0  0  0  0  0  0  0  0  0  0  0
  -18.4059   15.4168   26.1794 C   0  0  0  0  0  0  0  0  0  0  0  0
  -18.1399   16.8257   26.6328 C   0  0  0  0  0  0  0  0  0  0  0  0
  -18.2145   16.9053   27.7245 H   0  0  0  0  0  0  0  0  0  0  0  0
  -18.8782   17.5187   26.2111 H   0  0  0  0  0  0  0  0  0  0  0  0
  -16.8188   17.2499   26.2221 N   0  0  0  0  0  0  0  0  0  0  0  0
  -16.7313   17.6959   25.3252 H   0  0  0  0  0  0  0  0  0  0  0  0
  -15.7466   17.0693   26.9809 C   0  0  0  0  0  0  0  0  0  0  0  0
  -15.8098   16.5331   28.0772 O   0  0  0  0  0  0  0  0  0  0  0  0
  -14.4593   17.5819   26.4012 C   0  0  0  0  0  0  0  0  0  0  0  0
  -14.3166   17.1828   25.3929 H   0  0  0  0  0  0  0  0  0  0  0  0
  -14.4855   18.6745   26.3590 H   0  0  0  0  0  0  0  0  0  0  0  0
  -13.6209   17.2659   27.0279 H   0  0  0  0  0  0  0  0  0  0  0  0
  -17.9254   14.9730   24.9498 C   0  0  0  0  0  0  0  0  0  0  0  0
  -17.3347   15.6169   24.3476 H   0  0  0  0  0  0  0  0  0  0  0  0
  -18.2272   13.6916   24.4995 C   0  0  0  0  0  0  0  0  0  0  0  0
  -17.8670   13.3660   23.5547 H   0  0  0  0  0  0  0  0  0  0  0  0
  1  2  2  0
  1  3  2  0
  1  4  1  0
  1  7  1  0
  4  5  1  0
  4  6  1  0
  7  8  1  0
  7 26  2  0
  8  9  1  0
  8 10  2  0
 10 11  1  0
 10 12  1  0
 12 13  1  0
 12 24  2  0
 13 14  1  0
 13 15  1  0
 13 16  1  0
 16 17  1  0
 16 18  1  0
 18 19  2  0
 18 20  1  0
 20 21  1  0
 20 22  1  0
 20 23  1  0
 24 25  1  0
 24 26  1  0
 26 27  1  0
M  END
$$$$
