
     RDKit          3D

 29 30  0  0  0  0  0  0  0  0999 V2000
  -19.4245   17.1627   27.5554 O   0  0  0  0  0  0  0  0  0  0  0  0
  -18.6584   17.4621   26.6588 C   0  0  0  0  0  0  0  0  0  0  0  0
  -18.1121   16.5037   25.8494 N   0  0  0  0  0  0  0  0  0  0  0  0
  -17.4686   16.8531   25.1300 H   0  0  0  0  0  0  0  0  0  0  0  0
  -18.3219   15.1314   25.8919 C   0  0  0  0  0  0  0  0  0  0  0  0
  -17.7919   14.1915   25.0821 C   0  0  0  0  0  0  0  0  0  0  0  0
  -17.1245   14.2573   24.2651 H   0  0  0  0  0  0  0  0  0  0  0  0
  -18.3037   13.0180   25.5299 N   0  0  0  0  0  0  0  0  0  0  0  0
  -18.0611   11.6912   25.0065 C   0  0  0  0  0  0  0  0  0  0  0  0
  -17.4972   11.8010   24.0730 H   0  0  0  0  0  0  0  0  0  0  0  0
  -17.4238   11.1610   25.7224 H   0  0  0  0  0  0  0  0  0  0  0  0
  -19.3487   10.9221   24.7726 C   0  0  0  0  0  0  0  0  0  0  0  0
  -19.1295    9.9227   24.3846 H   0  0  0  0  0  0  0  0  0  0  0  0
  -19.9153   10.8119   25.7028 H   0  0  0  0  0  0  0  0  0  0  0  0
  -19.9903   11.4362   24.0494 H   0  0  0  0  0  0  0  0  0  0  0  0
  -19.1354   13.1929   26.5993 N   0  0  0  0  0  0  0  0  0  0  0  0
  -19.1408   14.4835   26.8109 C   0  0  0  0  0  0  0  0  0  0  0  0
  -19.7001   14.9467   27.5819 H   0  0  0  0  0  0  0  0  0  0  0  0
  -18.2049   18.9140   26.3234 C   0  0  0  0  0  0  0  0  0  0  0  0
  -18.7433   19.3308   25.4585 H   0  0  0  0  0  0  0  0  0  0  0  0
  -18.1756   19.9352   27.4939 C   0  0  0  0  0  0  0  0  0  0  0  0
  -18.0054   19.4904   28.4803 H   0  0  0  0  0  0  0  0  0  0  0  0
  -19.0342   20.6103   27.5533 H   0  0  0  0  0  0  0  0  0  0  0  0
  -16.9078   20.5342   26.8569 C   0  0  0  0  0  0  0  0  0  0  0  0
  -16.1332   20.8610   27.5547 H   0  0  0  0  0  0  0  0  0  0  0  0
  -17.1125   21.3412   26.1441 H   0  0  0  0  0  0  0  0  0  0  0  0
  -16.6770   19.1646   26.1906 C   0  0  0  0  0  0  0  0  0  0  0  0
  -16.0530   18.4857   26.7840 H   0  0  0  0  0  0  0  0  0  0  0  0
  -16.2903   19.1990   25.1689 H   0  0  0  0  0  0  0  0  0  0  0  0
  1  2  2  0
  2  3  1  0
  2 19  1  0
  3  4  1  0
  3  5  1  0
  5  6  2  0
  5 17  1  0
  6  7  1  0
  6  8  1  0
  8  9  1  0
  8 16  1  0
  9 10  1  0
  9 11  1  0
  9 12  1  0
 12 13  1  0
 12 14  1  0
 12 15  1  0
 16 17  2  0
 17 18  1  0
 19 20  1  0
 19 21  1  0
 19 27  1  0
 21 22  1  0
 21 23  1  0
 21 24  1  0
 24 25  1  0
 24 26  1  0
 24 27  1  0
 27 28  1  0
 27 29  1  0
M  END
$$$$
