
     RDKit          3D

 27 28  0  0  0  0  0  0  0  0999 V2000
  -23.9509   19.0065   28.8979 O   0  0  0  0  0  0  0  0  0  0  0  0
  -24.9689   19.5248   29.7434 C   0  0  0  0  0  0  0  0  0  0  0  0
  -25.9298   19.3719   29.2417 H   0  0  0  0  0  0  0  0  0  0  0  0
  -24.8436   20.6020   29.8983 H   0  0  0  0  0  0  0  0  0  0  0  0
  -25.0035   18.9872   30.6966 H   0  0  0  0  0  0  0  0  0  0  0  0
  -22.6392   19.1044   29.3125 C   0  0  0  0  0  0  0  0  0  0  0  0
  -21.7264   19.5641   28.3525 C   0  0  0  0  0  0  0  0  0  0  0  0
  -20.3766   19.6520   28.7249 C   0  0  0  0  0  0  0  0  0  0  0  0
  -19.2918   20.0446   27.9050 N   0  0  0  0  0  0  0  0  0  0  0  0
  -18.3909   20.1461   28.3878 H   0  0  0  0  0  0  0  0  0  0  0  0
  -19.1602   20.3145   26.5794 C   0  0  0  0  0  0  0  0  0  0  0  0
  -18.0259   20.5893   26.2638 O   0  0  0  0  0  0  0  0  0  0  0  0
  -20.2791   20.1944   25.6044 C   0  0  0  0  0  0  0  0  0  0  0  0
  -19.9569   20.6873   24.6790 H   0  0  0  0  0  0  0  0  0  0  0  0
  -20.4455   19.1365   25.3728 H   0  0  0  0  0  0  0  0  0  0  0  0
  -21.5173   20.8822   26.1185 C   0  0  0  0  0  0  0  0  0  0  0  0
  -21.2760   21.8142   26.6450 H   0  0  0  0  0  0  0  0  0  0  0  0
  -22.1468   21.1522   25.2624 H   0  0  0  0  0  0  0  0  0  0  0  0
  -22.3128   19.9487   27.0108 C   0  0  0  0  0  0  0  0  0  0  0  0
  -22.5484   19.0260   26.4644 H   0  0  0  0  0  0  0  0  0  0  0  0
  -23.2646   20.4688   27.1810 H   0  0  0  0  0  0  0  0  0  0  0  0
  -19.9591   19.2941   30.0089 C   0  0  0  0  0  0  0  0  0  0  0  0
  -18.9357   19.3667   30.2736 H   0  0  0  0  0  0  0  0  0  0  0  0
  -20.8825   18.8457   30.9439 C   0  0  0  0  0  0  0  0  0  0  0  0
  -20.5638   18.5775   31.9183 H   0  0  0  0  0  0  0  0  0  0  0  0
  -22.2262   18.7503   30.6006 C   0  0  0  0  0  0  0  0  0  0  0  0
  -22.9235   18.4083   31.3184 H   0  0  0  0  0  0  0  0  0  0  0  0
  1  2  1  0
  1  6  1  0
  2  3  1  0
  2  4  1  0
  2  5  1  0
  6  7  1  0
  6 26  2  0
  7  8  2  0
  7 19  1  0
  8  9  1  0
  8 22  1  0
  9 10  1  0
  9 11  1  0
 11 12  2  0
 11 13  1  0
 13 14  1  0
 13 15  1  0
 13 16  1  0
 16 17  1  0
 16 18  1  0
 16 19  1  0
 19 20  1  0
 19 21  1  0
 22 23  1  0
 22 24  2  0
 24 25  1  0
 24 26  1  0
 26 27  1  0
M  END
$$$$
