
     RDKit          3D

 35 37  0  0  0  0  0  0  0  0999 V2000
  -27.7079   14.2395   31.6445 F   0  0  0  0  0  0  0  0  0  0  0  0
  -26.5903   13.8505   31.0146 C   0  0  0  0  0  0  0  0  0  0  0  0
  -26.3136   14.3698   29.7560 C   0  0  0  0  0  0  0  0  0  0  0  0
  -26.9791   15.0614   29.3090 H   0  0  0  0  0  0  0  0  0  0  0  0
  -25.1544   13.9659   29.1002 C   0  0  0  0  0  0  0  0  0  0  0  0
  -24.9412   14.3584   28.1447 H   0  0  0  0  0  0  0  0  0  0  0  0
  -24.2902   13.0377   29.7084 C   0  0  0  0  0  0  0  0  0  0  0  0
  -23.1408   12.6175   29.0510 N   0  0  0  0  0  0  0  0  0  0  0  0
  -22.1902   13.5566   28.4368 C   0  0  0  0  0  0  0  0  0  0  0  0
  -22.5260   14.5977   28.4730 H   0  0  0  0  0  0  0  0  0  0  0  0
  -21.2552   13.5138   29.0093 H   0  0  0  0  0  0  0  0  0  0  0  0
  -21.9080   13.1556   26.9801 C   0  0  0  0  0  0  0  0  0  0  0  0
  -21.1430   13.8119   26.5589 H   0  0  0  0  0  0  0  0  0  0  0  0
  -22.8142   13.2777   26.3755 H   0  0  0  0  0  0  0  0  0  0  0  0
  -21.5201   11.7416   26.8868 N   0  0  0  0  0  0  0  0  0  0  0  0
  -20.3730   11.2792   26.2861 C   0  0  0  0  0  0  0  0  0  0  0  0
  -20.1674   10.0796   26.2618 O   0  0  0  0  0  0  0  0  0  0  0  0
  -19.4243   12.2422   25.6833 C   0  0  0  0  0  0  0  0  0  0  0  0
  -19.0253   12.9674   26.3859 H   0  0  0  0  0  0  0  0  0  0  0  0
  -19.6597   12.7621   24.2826 C   0  0  0  0  0  0  0  0  0  0  0  0
  -20.5199   12.3932   23.7350 H   0  0  0  0  0  0  0  0  0  0  0  0
  -19.4174   13.7983   24.0805 H   0  0  0  0  0  0  0  0  0  0  0  0
  -18.5316   11.8112   24.5427 C   0  0  0  0  0  0  0  0  0  0  0  0
  -18.6291   10.8011   24.1599 H   0  0  0  0  0  0  0  0  0  0  0  0
  -17.5215   12.2019   24.5143 H   0  0  0  0  0  0  0  0  0  0  0  0
  -22.4816   10.8158   27.4990 C   0  0  0  0  0  0  0  0  0  0  0  0
  -23.3995   10.8744   26.9027 H   0  0  0  0  0  0  0  0  0  0  0  0
  -22.1277    9.7810   27.4547 H   0  0  0  0  0  0  0  0  0  0  0  0
  -22.7809   11.1932   28.9605 C   0  0  0  0  0  0  0  0  0  0  0  0
  -21.8965   11.0126   29.5825 H   0  0  0  0  0  0  0  0  0  0  0  0
  -23.5810   10.5353   29.3173 H   0  0  0  0  0  0  0  0  0  0  0  0
  -24.5842   12.5456   30.9906 C   0  0  0  0  0  0  0  0  0  0  0  0
  -23.9143   11.8837   31.4723 H   0  0  0  0  0  0  0  0  0  0  0  0
  -25.7450   12.9478   31.6444 C   0  0  0  0  0  0  0  0  0  0  0  0
  -25.9804   12.5827   32.6094 H   0  0  0  0  0  0  0  0  0  0  0  0
  1  2  1  0
  2  3  1  0
  2 34  2  0
  3  4  1  0
  3  5  2  0
  5  6  1  0
  5  7  1  0
  7  8  1  0
  7 32  2  0
  8  9  1  0
  8 29  1  0
  9 10  1  0
  9 11  1  0
  9 12  1  0
 12 13  1  0
 12 14  1  0
 12 15  1  0
 15 16  1  0
 15 26  1  0
 16 17  2  0
 16 18  1  0
 18 19  1  0
 18 20  1  0
 18 23  1  0
 20 21  1  0
 20 22  1  0
 20 23  1  0
 23 24  1  0
 23 25  1  0
 26 27  1  0
 26 28  1  0
 26 29  1  0
 29 30  1  0
 29 31  1  0
 32 33  1  0
 32 34  1  0
 34 35  1  0
M  END
$$$$
