
     RDKit          3D

 27 28  0  0  0  0  0  0  0  0999 V2000
  -19.8582   13.2359   28.0115 O   0  0  0  0  0  0  0  0  0  0  0  0
  -21.2656   13.3105   28.1951 C   0  0  0  0  0  0  0  0  0  0  0  0
  -21.5205   12.7072   29.0722 H   0  0  0  0  0  0  0  0  0  0  0  0
  -21.7991   12.8887   27.3363 H   0  0  0  0  0  0  0  0  0  0  0  0
  -21.5846   14.3385   28.3959 H   0  0  0  0  0  0  0  0  0  0  0  0
  -19.2981   13.9073   26.9450 C   0  0  0  0  0  0  0  0  0  0  0  0
  -18.9781   13.1227   25.8277 C   0  0  0  0  0  0  0  0  0  0  0  0
  -18.3805   13.7619   24.7310 C   0  0  0  0  0  0  0  0  0  0  0  0
  -17.9392   13.1564   23.5303 N   0  0  0  0  0  0  0  0  0  0  0  0
  -17.6217   13.8068   22.8015 H   0  0  0  0  0  0  0  0  0  0  0  0
  -17.8226   11.8691   23.1101 C   0  0  0  0  0  0  0  0  0  0  0  0
  -17.3586   11.7758   21.9975 O   0  0  0  0  0  0  0  0  0  0  0  0
  -18.1473   10.6955   23.9669 C   0  0  0  0  0  0  0  0  0  0  0  0
  -18.1860    9.8166   23.3118 H   0  0  0  0  0  0  0  0  0  0  0  0
  -17.3349   10.5352   24.6844 H   0  0  0  0  0  0  0  0  0  0  0  0
  -19.4885   10.8688   24.6314 C   0  0  0  0  0  0  0  0  0  0  0  0
  -20.2162   11.3437   23.9613 H   0  0  0  0  0  0  0  0  0  0  0  0
  -19.8840    9.8774   24.8819 H   0  0  0  0  0  0  0  0  0  0  0  0
  -19.3463   11.6571   25.9193 C   0  0  0  0  0  0  0  0  0  0  0  0
  -18.6192   11.1632   26.5771 H   0  0  0  0  0  0  0  0  0  0  0  0
  -20.3257   11.5723   26.4082 H   0  0  0  0  0  0  0  0  0  0  0  0
  -18.1154   15.1332   24.7535 C   0  0  0  0  0  0  0  0  0  0  0  0
  -17.6637   15.6001   23.9165 H   0  0  0  0  0  0  0  0  0  0  0  0
  -18.4455   15.8901   25.8698 C   0  0  0  0  0  0  0  0  0  0  0  0
  -18.2460   16.9307   25.8835 H   0  0  0  0  0  0  0  0  0  0  0  0
  -19.0394   15.2811   26.9694 C   0  0  0  0  0  0  0  0  0  0  0  0
  -19.2882   15.8644   27.8157 H   0  0  0  0  0  0  0  0  0  0  0  0
  1  2  1  0
  1  6  1  0
  2  3  1  0
  2  4  1  0
  2  5  1  0
  6  7  1  0
  6 26  2  0
  7  8  2  0
  7 19  1  0
  8  9  1  0
  8 22  1  0
  9 10  1  0
  9 11  1  0
 11 12  2  0
 11 13  1  0
 13 14  1  0
 13 15  1  0
 13 16  1  0
 16 17  1  0
 16 18  1  0
 16 19  1  0
 19 20  1  0
 19 21  1  0
 22 23  1  0
 22 24  2  0
 24 25  1  0
 24 26  1  0
 26 27  1  0
M  END
$$$$
