
     RDKit          3D

 16 17  0  0  0  0  0  0  0  0999 V2000
  -18.7583   16.4216   27.0769 Br  0  0  0  0  0  0  0  0  0  0  0  0
  -18.6128   14.9119   25.9402 C   0  0  0  0  0  0  0  0  0  0  0  0
  -19.2837   13.6833   26.1884 C   0  0  0  0  0  0  0  0  0  0  0  0
  -19.0900   12.6324   25.2596 C   0  0  0  0  0  0  0  0  0  0  0  0
  -18.2924   12.7828   24.1632 N   0  0  0  0  0  0  0  0  0  0  0  0
  -17.6850   13.9146   23.9502 C   0  0  0  0  0  0  0  0  0  0  0  0
  -17.0707   14.0027   23.0875 H   0  0  0  0  0  0  0  0  0  0  0  0
  -17.8214   15.0107   24.8234 C   0  0  0  0  0  0  0  0  0  0  0  0
  -17.3060   15.9109   24.6059 H   0  0  0  0  0  0  0  0  0  0  0  0
  -19.6936   11.4190   25.4173 N   0  0  0  0  0  0  0  0  0  0  0  0
  -20.4703   11.2067   26.4430 C   0  0  0  0  0  0  0  0  0  0  0  0
  -20.9264   10.2521   26.5397 H   0  0  0  0  0  0  0  0  0  0  0  0
  -20.7163   12.2002   27.4144 C   0  0  0  0  0  0  0  0  0  0  0  0
  -21.3561   11.9780   28.2294 H   0  0  0  0  0  0  0  0  0  0  0  0
  -20.1319   13.4357   27.2987 C   0  0  0  0  0  0  0  0  0  0  0  0
  -20.3149   14.1831   28.0269 H   0  0  0  0  0  0  0  0  0  0  0  0
  1  2  1  0
  2  3  1  0
  2  8  2  0
  3  4  1  0
  3 15  2  0
  4  5  1  0
  4 10  2  0
  5  6  2  0
  6  7  1  0
  6  8  1  0
  8  9  1  0
 10 11  1  0
 11 12  1  0
 11 13  2  0
 13 14  1  0
 13 15  1  0
 15 16  1  0
M  END
$$$$
