
     RDKit          3D

 29 30  0  0  0  0  0  0  0  0999 V2000
  -16.3330   13.0022   25.1037 O   0  0  0  0  0  0  0  0  0  0  0  0
  -17.4544   12.8288   24.6554 C   0  0  0  0  0  0  0  0  0  0  0  0
  -17.6843   13.0305   23.3562 N   0  0  0  0  0  0  0  0  0  0  0  0
  -16.8509   13.2753   22.8103 H   0  0  0  0  0  0  0  0  0  0  0  0
  -18.3968   12.4369   22.9246 H   0  0  0  0  0  0  0  0  0  0  0  0
  -18.5229   12.4168   25.4078 N   0  0  0  0  0  0  0  0  0  0  0  0
  -18.2901   11.9548   26.7791 C   0  0  0  0  0  0  0  0  0  0  0  0
  -17.2337   12.0354   27.0558 H   0  0  0  0  0  0  0  0  0  0  0  0
  -18.5564   10.8912   26.8071 H   0  0  0  0  0  0  0  0  0  0  0  0
  -19.1479   12.7367   27.7736 C   0  0  0  0  0  0  0  0  0  0  0  0
  -18.8494   13.7920   27.7756 H   0  0  0  0  0  0  0  0  0  0  0  0
  -18.9870   12.3534   28.7850 H   0  0  0  0  0  0  0  0  0  0  0  0
  -20.5694   12.7067   27.3974 N   0  0  0  0  0  0  0  0  0  0  0  0
  -21.5318   12.3202   28.3249 C   0  0  0  0  0  0  0  0  0  0  0  0
  -21.1213   11.7372   29.3289 O   0  0  0  0  0  0  0  0  0  0  0  0
  -22.9369   12.5867   28.1113 C   0  0  0  0  0  0  0  0  0  0  0  0
  -23.5721   12.1345   26.9883 O   0  0  0  0  0  0  0  0  0  0  0  0
  -24.8497   12.5732   27.0239 C   0  0  0  0  0  0  0  0  0  0  0  0
  -25.5236   12.3219   26.2453 H   0  0  0  0  0  0  0  0  0  0  0  0
  -25.0445   13.3143   28.1390 C   0  0  0  0  0  0  0  0  0  0  0  0
  -25.9483   13.7861   28.4251 H   0  0  0  0  0  0  0  0  0  0  0  0
  -23.8129   13.3404   28.8358 C   0  0  0  0  0  0  0  0  0  0  0  0
  -23.5895   13.8398   29.7441 H   0  0  0  0  0  0  0  0  0  0  0  0
  -20.8403   13.1179   26.0128 C   0  0  0  0  0  0  0  0  0  0  0  0
  -21.8745   12.9175   25.7274 H   0  0  0  0  0  0  0  0  0  0  0  0
  -20.6683   14.1993   25.9638 H   0  0  0  0  0  0  0  0  0  0  0  0
  -19.9349   12.3919   25.0006 C   0  0  0  0  0  0  0  0  0  0  0  0
  -20.0854   12.8449   24.0182 H   0  0  0  0  0  0  0  0  0  0  0  0
  -20.2227   11.3358   24.9332 H   0  0  0  0  0  0  0  0  0  0  0  0
  1  2  2  0
  2  3  1  0
  2  6  1  0
  3  4  1  0
  3  5  1  0
  6  7  1  0
  6 27  1  0
  7  8  1  0
  7  9  1  0
  7 10  1  0
 10 11  1  0
 10 12  1  0
 10 13  1  0
 13 14  1  0
 13 24  1  0
 14 15  2  0
 14 16  1  0
 16 17  1  0
 16 22  2  0
 17 18  1  0
 18 19  1  0
 18 20  2  0
 20 21  1  0
 20 22  1  0
 22 23  1  0
 24 25  1  0
 24 26  1  0
 24 27  1  0
 27 28  1  0
 27 29  1  0
M  END
$$$$
