
     RDKit          3D

 16 16  0  0  0  0  0  0  0  0999 V2000
  -19.1208   11.8129   24.0501 Br  0  0  0  0  0  0  0  0  0  0  0  0
  -18.7106   13.1279   25.3105 C   0  0  0  0  0  0  0  0  0  0  0  0
  -18.5390   14.4503   25.1050 C   0  0  0  0  0  0  0  0  0  0  0  0
  -18.5970   15.0419   24.2293 H   0  0  0  0  0  0  0  0  0  0  0  0
  -18.2606   14.9764   26.3201 N   0  0  0  0  0  0  0  0  0  0  0  0
  -17.9810   16.3594   26.6529 C   0  0  0  0  0  0  0  0  0  0  0  0
  -18.2623   16.9608   25.7814 H   0  0  0  0  0  0  0  0  0  0  0  0
  -18.6336   16.6305   27.4902 H   0  0  0  0  0  0  0  0  0  0  0  0
  -16.5164   16.5730   27.0010 C   0  0  0  0  0  0  0  0  0  0  0  0
  -15.8912   16.3293   26.1373 H   0  0  0  0  0  0  0  0  0  0  0  0
  -16.2027   15.9571   27.8504 H   0  0  0  0  0  0  0  0  0  0  0  0
  -16.2909   17.9427   27.3201 O   0  0  0  0  0  0  0  0  0  0  0  0
  -16.7712   18.1277   28.1463 H   0  0  0  0  0  0  0  0  0  0  0  0
  -18.2554   14.0269   27.2954 N   0  0  0  0  0  0  0  0  0  0  0  0
  -18.5272   12.9102   26.6715 C   0  0  0  0  0  0  0  0  0  0  0  0
  -18.5957   11.9713   27.1576 H   0  0  0  0  0  0  0  0  0  0  0  0
  1  2  1  0
  2  3  2  0
  2 15  1  0
  3  4  1  0
  3  5  1  0
  5  6  1  0
  5 14  1  0
  6  7  1  0
  6  8  1  0
  6  9  1  0
  9 10  1  0
  9 11  1  0
  9 12  1  0
 12 13  1  0
 14 15  2  0
 15 16  1  0
M  END
$$$$
