
     RDKit          3D

 16 17  0  0  0  0  0  0  0  0999 V2000
  -17.6087   15.1302   25.2907 Br  0  0  0  0  0  0  0  0  0  0  0  0
  -18.8408   13.9197   26.0710 C   0  0  0  0  0  0  0  0  0  0  0  0
  -19.0002   12.5781   25.6283 C   0  0  0  0  0  0  0  0  0  0  0  0
  -19.9567   11.7772   26.2978 C   0  0  0  0  0  0  0  0  0  0  0  0
  -20.7023   12.2643   27.3312 N   0  0  0  0  0  0  0  0  0  0  0  0
  -20.5440   13.4953   27.7245 C   0  0  0  0  0  0  0  0  0  0  0  0
  -21.1383   13.8468   28.5324 H   0  0  0  0  0  0  0  0  0  0  0  0
  -19.6162   14.3605   27.1139 C   0  0  0  0  0  0  0  0  0  0  0  0
  -19.5249   15.3542   27.4711 H   0  0  0  0  0  0  0  0  0  0  0  0
  -20.1772   10.4789   25.9409 N   0  0  0  0  0  0  0  0  0  0  0  0
  -19.4986    9.9487   24.9617 C   0  0  0  0  0  0  0  0  0  0  0  0
  -19.6919    8.9358   24.7060 H   0  0  0  0  0  0  0  0  0  0  0  0
  -18.5271   10.6775   24.2431 C   0  0  0  0  0  0  0  0  0  0  0  0
  -18.0020   10.2006   23.4558 H   0  0  0  0  0  0  0  0  0  0  0  0
  -18.2704   11.9857   24.5653 C   0  0  0  0  0  0  0  0  0  0  0  0
  -17.5417   12.5350   24.0271 H   0  0  0  0  0  0  0  0  0  0  0  0
  1  2  1  0
  2  3  1  0
  2  8  2  0
  3  4  1  0
  3 15  2  0
  4  5  1  0
  4 10  2  0
  5  6  2  0
  6  7  1  0
  6  8  1  0
  8  9  1  0
 10 11  1  0
 11 12  1  0
 11 13  2  0
 13 14  1  0
 13 15  1  0
 15 16  1  0
M  END
$$$$
