
     RDKit          3D

 29 30  0  0  0  0  0  0  0  0999 V2000
  -22.2911    9.8614   26.8210 O   0  0  0  0  0  0  0  0  0  0  0  0
  -21.9212   10.7650   27.5525 C   0  0  0  0  0  0  0  0  0  0  0  0
  -22.6050   11.0340   28.6667 N   0  0  0  0  0  0  0  0  0  0  0  0
  -23.3033   11.7789   28.5673 H   0  0  0  0  0  0  0  0  0  0  0  0
  -22.8208   10.2363   29.2697 H   0  0  0  0  0  0  0  0  0  0  0  0
  -20.8149   11.5373   27.3136 N   0  0  0  0  0  0  0  0  0  0  0  0
  -19.8938   11.1468   26.2426 C   0  0  0  0  0  0  0  0  0  0  0  0
  -20.2464   10.2541   25.7157 H   0  0  0  0  0  0  0  0  0  0  0  0
  -18.9399   10.8910   26.7196 H   0  0  0  0  0  0  0  0  0  0  0  0
  -19.6931   12.2904   25.2485 C   0  0  0  0  0  0  0  0  0  0  0  0
  -20.6391   12.5146   24.7409 H   0  0  0  0  0  0  0  0  0  0  0  0
  -18.9761   11.9922   24.4787 H   0  0  0  0  0  0  0  0  0  0  0  0
  -19.2821   13.5280   25.9286 N   0  0  0  0  0  0  0  0  0  0  0  0
  -18.1547   14.2219   25.5000 C   0  0  0  0  0  0  0  0  0  0  0  0
  -17.3839   13.6100   24.7599 O   0  0  0  0  0  0  0  0  0  0  0  0
  -17.9056   15.5858   25.9109 C   0  0  0  0  0  0  0  0  0  0  0  0
  -18.9363   16.4719   26.0576 O   0  0  0  0  0  0  0  0  0  0  0  0
  -18.4128   17.6726   26.3897 C   0  0  0  0  0  0  0  0  0  0  0  0
  -19.0477   18.5037   26.5624 H   0  0  0  0  0  0  0  0  0  0  0  0
  -17.0639   17.5812   26.4419 C   0  0  0  0  0  0  0  0  0  0  0  0
  -16.3935   18.3670   26.6749 H   0  0  0  0  0  0  0  0  0  0  0  0
  -16.7295   16.2444   26.1192 C   0  0  0  0  0  0  0  0  0  0  0  0
  -15.7629   15.8146   26.0473 H   0  0  0  0  0  0  0  0  0  0  0  0
  -20.1545   13.9285   27.0412 C   0  0  0  0  0  0  0  0  0  0  0  0
  -19.7207   14.7459   27.6199 H   0  0  0  0  0  0  0  0  0  0  0  0
  -21.0948   14.2757   26.5978 H   0  0  0  0  0  0  0  0  0  0  0  0
  -20.4264   12.7682   28.0166 C   0  0  0  0  0  0  0  0  0  0  0  0
  -21.1884   13.0901   28.7297 H   0  0  0  0  0  0  0  0  0  0  0  0
  -19.5150   12.5328   28.5795 H   0  0  0  0  0  0  0  0  0  0  0  0
  1  2  2  0
  2  3  1  0
  2  6  1  0
  3  4  1  0
  3  5  1  0
  6  7  1  0
  6 27  1  0
  7  8  1  0
  7  9  1  0
  7 10  1  0
 10 11  1  0
 10 12  1  0
 10 13  1  0
 13 14  1  0
 13 24  1  0
 14 15  2  0
 14 16  1  0
 16 17  1  0
 16 22  2  0
 17 18  1  0
 18 19  1  0
 18 20  2  0
 20 21  1  0
 20 22  1  0
 22 23  1  0
 24 25  1  0
 24 26  1  0
 24 27  1  0
 27 28  1  0
 27 29  1  0
M  END
$$$$
