
     RDKit          3D

 18 18  0  0  0  0  0  0  0  0999 V2000
  -20.0849   13.9460   26.8849 O   0  0  0  0  0  0  0  0  0  0  0  0
  -20.1846   12.7563   26.6215 C   0  0  0  0  0  0  0  0  0  0  0  0
  -21.1005   11.9097   27.1797 O   0  0  0  0  0  0  0  0  0  0  0  0
  -22.0932   12.5131   28.0242 C   0  0  0  0  0  0  0  0  0  0  0  0
  -22.6257   13.2512   27.4152 H   0  0  0  0  0  0  0  0  0  0  0  0
  -21.6305   13.0547   28.8567 H   0  0  0  0  0  0  0  0  0  0  0  0
  -23.0666   11.4604   28.5181 C   0  0  0  0  0  0  0  0  0  0  0  0
  -22.5563   10.7102   29.1305 H   0  0  0  0  0  0  0  0  0  0  0  0
  -23.5185   10.9279   27.6750 H   0  0  0  0  0  0  0  0  0  0  0  0
  -23.8618   11.9167   29.1143 H   0  0  0  0  0  0  0  0  0  0  0  0
  -19.3191   12.0893   25.6660 C   0  0  0  0  0  0  0  0  0  0  0  0
  -18.3600   12.6565   24.8795 C   0  0  0  0  0  0  0  0  0  0  0  0
  -18.0331   13.6596   24.7811 H   0  0  0  0  0  0  0  0  0  0  0  0
  -17.8269   11.6507   24.1663 N   0  0  0  0  0  0  0  0  0  0  0  0
  -17.0646   11.7517   23.4675 H   0  0  0  0  0  0  0  0  0  0  0  0
  -18.4036   10.4536   24.4603 N   0  0  0  0  0  0  0  0  0  0  0  0
  -19.3019   10.7267   25.3643 C   0  0  0  0  0  0  0  0  0  0  0  0
  -19.9304    9.9935   25.8042 H   0  0  0  0  0  0  0  0  0  0  0  0
  1  2  2  0
  2  3  1  0
  2 11  1  0
  3  4  1  0
  4  5  1  0
  4  6  1  0
  4  7  1  0
  7  8  1  0
  7  9  1  0
  7 10  1  0
 11 12  2  0
 11 17  1  0
 12 13  1  0
 12 14  1  0
 14 15  1  0
 14 16  1  0
 16 17  2  0
 17 18  1  0
M  END
$$$$
