
     RDKit          3D

 25 26  0  0  0  0  0  0  0  0999 V2000
  -22.2539   11.1899   28.3154 O   0  0  0  0  0  0  0  0  0  0  0  0
  -22.1540   12.4020   28.4934 C   0  0  0  0  0  0  0  0  0  0  0  0
  -21.2959   13.1271   27.7029 N   0  0  0  0  0  0  0  0  0  0  0  0
  -21.2782   14.1326   27.9233 H   0  0  0  0  0  0  0  0  0  0  0  0
  -20.4860   12.6588   26.6839 C   0  0  0  0  0  0  0  0  0  0  0  0
  -19.7200   13.4855   25.9434 C   0  0  0  0  0  0  0  0  0  0  0  0
  -19.5814   14.5334   25.9673 H   0  0  0  0  0  0  0  0  0  0  0  0
  -19.0826   12.6731   25.0645 N   0  0  0  0  0  0  0  0  0  0  0  0
  -18.1404   13.0437   24.0404 C   0  0  0  0  0  0  0  0  0  0  0  0
  -18.0054   14.1279   24.0443 H   0  0  0  0  0  0  0  0  0  0  0  0
  -18.5353   12.7201   23.0740 H   0  0  0  0  0  0  0  0  0  0  0  0
  -17.1892   12.5486   24.2513 H   0  0  0  0  0  0  0  0  0  0  0  0
  -19.4223   11.3667   25.2278 N   0  0  0  0  0  0  0  0  0  0  0  0
  -20.2793   11.3609   26.2182 C   0  0  0  0  0  0  0  0  0  0  0  0
  -20.7367   10.4824   26.5938 H   0  0  0  0  0  0  0  0  0  0  0  0
  -22.8844   13.1549   29.4930 C   0  0  0  0  0  0  0  0  0  0  0  0
  -22.9037   14.4644   29.5080 N   0  0  0  0  0  0  0  0  0  0  0  0
  -23.6547   14.8349   30.5411 O   0  0  0  0  0  0  0  0  0  0  0  0
  -24.1187   13.7636   31.1922 C   0  0  0  0  0  0  0  0  0  0  0  0
  -24.9706   14.0083   32.3666 C   0  0  0  0  0  0  0  0  0  0  0  0
  -25.2867   13.0672   32.8265 H   0  0  0  0  0  0  0  0  0  0  0  0
  -25.8677   14.5653   32.0796 H   0  0  0  0  0  0  0  0  0  0  0  0
  -24.4303   14.5901   33.1191 H   0  0  0  0  0  0  0  0  0  0  0  0
  -23.6512   12.6802   30.5589 C   0  0  0  0  0  0  0  0  0  0  0  0
  -23.8270   11.6670   30.8119 H   0  0  0  0  0  0  0  0  0  0  0  0
  1  2  2  0
  2  3  1  0
  2 16  1  0
  3  4  1  0
  3  5  1  0
  5  6  2  0
  5 14  1  0
  6  7  1  0
  6  8  1  0
  8  9  1  0
  8 13  1  0
  9 10  1  0
  9 11  1  0
  9 12  1  0
 13 14  2  0
 14 15  1  0
 16 17  2  0
 16 24  1  0
 17 18  1  0
 18 19  1  0
 19 20  1  0
 19 24  2  0
 20 21  1  0
 20 22  1  0
 20 23  1  0
 24 25  1  0
M  END
$$$$
