
     RDKit          3D

 26 26  0  0  0  0  0  0  0  0999 V2000
  -24.2388   11.5926   31.0672 F   0  0  0  0  0  0  0  0  0  0  0  0
  -23.7427   11.9414   29.8698 C   0  0  0  0  0  0  0  0  0  0  0  0
  -23.9579   13.2155   29.3131 C   0  0  0  0  0  0  0  0  0  0  0  0
  -24.6810   14.2107   29.9899 N   0  0  0  0  0  0  0  0  0  0  0  0
  -24.0185   15.5199   30.1985 C   0  0  0  0  0  0  0  0  0  0  0  0
  -23.6384   15.7200   31.6774 C   0  0  0  0  0  0  0  0  0  0  0  0
  -23.0826   14.8528   32.0501 H   0  0  0  0  0  0  0  0  0  0  0  0
  -24.5247   15.8391   32.3083 H   0  0  0  0  0  0  0  0  0  0  0  0
  -22.8207   16.8741   31.8601 O   0  0  0  0  0  0  0  0  0  0  0  0
  -22.0400   16.7181   31.2987 H   0  0  0  0  0  0  0  0  0  0  0  0
  -24.8609   16.6909   29.6779 C   0  0  0  0  0  0  0  0  0  0  0  0
  -24.2656   17.6111   29.6780 H   0  0  0  0  0  0  0  0  0  0  0  0
  -25.7426   16.8838   30.2961 H   0  0  0  0  0  0  0  0  0  0  0  0
  -25.1938   16.5090   28.6514 H   0  0  0  0  0  0  0  0  0  0  0  0
  -26.0359   13.9593   30.4591 C   0  0  0  0  0  0  0  0  0  0  0  0
  -26.7453   13.9825   29.6254 H   0  0  0  0  0  0  0  0  0  0  0  0
  -26.3672   14.6992   31.1937 H   0  0  0  0  0  0  0  0  0  0  0  0
  -26.1050   12.9937   30.9743 H   0  0  0  0  0  0  0  0  0  0  0  0
  -23.4669   13.5413   28.1075 N   0  0  0  0  0  0  0  0  0  0  0  0
  -22.7737   12.6202   27.4266 C   0  0  0  0  0  0  0  0  0  0  0  0
  -22.3976   12.8927   26.4740 H   0  0  0  0  0  0  0  0  0  0  0  0
  -22.5374   11.3378   27.9255 C   0  0  0  0  0  0  0  0  0  0  0  0
  -21.9840   10.6408   27.3520 H   0  0  0  0  0  0  0  0  0  0  0  0
  -23.0295   10.9809   29.1783 C   0  0  0  0  0  0  0  0  0  0  0  0
  -22.8677   10.0188   29.5905 H   0  0  0  0  0  0  0  0  0  0  0  0
  -23.0948   15.5620   29.6057 H   0  0  0  0  0  0  0  0  0  0  0  0
  1  2  1  0
  2  3  1  0
  2 24  2  0
  3  4  1  0
  3 19  2  0
  4  5  1  0
  4 15  1  0
  5  6  1  0
  5 11  1  0
  5 26  1  0
  6  7  1  0
  6  8  1  0
  6  9  1  0
  9 10  1  0
 11 12  1  0
 11 13  1  0
 11 14  1  0
 15 16  1  0
 15 17  1  0
 15 18  1  0
 19 20  1  0
 20 21  1  0
 20 22  2  0
 22 23  1  0
 22 24  1  0
 24 25  1  0
M  END
$$$$
