
     RDKit          3D

 26 28  0  0  0  0  0  0  0  0999 V2000
  -17.7059   17.2227   26.6144 O   0  0  0  0  0  0  0  0  0  0  0  0
  -17.0881   16.3181   26.0617 C   0  0  0  0  0  0  0  0  0  0  0  0
  -15.7501   16.5085   25.8242 N   0  0  0  0  0  0  0  0  0  0  0  0
  -15.2046   15.7180   25.4690 H   0  0  0  0  0  0  0  0  0  0  0  0
  -15.0707   17.7402   26.0748 C   0  0  0  0  0  0  0  0  0  0  0  0
  -14.5522   17.7498   27.0313 H   0  0  0  0  0  0  0  0  0  0  0  0
  -15.6514   19.0500   25.6155 C   0  0  0  0  0  0  0  0  0  0  0  0
  -16.5764   19.0431   25.0516 H   0  0  0  0  0  0  0  0  0  0  0  0
  -15.5335   19.9090   26.2654 H   0  0  0  0  0  0  0  0  0  0  0  0
  -14.4248   18.5007   24.9493 C   0  0  0  0  0  0  0  0  0  0  0  0
  -13.4737   18.9785   25.1509 H   0  0  0  0  0  0  0  0  0  0  0  0
  -14.5208   18.1087   23.9441 H   0  0  0  0  0  0  0  0  0  0  0  0
  -17.7109   15.0268   25.6973 C   0  0  0  0  0  0  0  0  0  0  0  0
  -18.1011   14.1608   26.7366 C   0  0  0  0  0  0  0  0  0  0  0  0
  -17.9478   14.4269   27.7501 H   0  0  0  0  0  0  0  0  0  0  0  0
  -18.6896   12.9502   26.4115 C   0  0  0  0  0  0  0  0  0  0  0  0
  -19.1158   12.0069   27.2912 O   0  0  0  0  0  0  0  0  0  0  0  0
  -19.6216   11.0011   26.3888 C   0  0  0  0  0  0  0  0  0  0  0  0
  -19.0730   10.0686   26.5600 H   0  0  0  0  0  0  0  0  0  0  0  0
  -20.6815   10.8318   26.6106 H   0  0  0  0  0  0  0  0  0  0  0  0
  -19.4934   11.3633   24.9977 O   0  0  0  0  0  0  0  0  0  0  0  0
  -18.9051   12.5842   25.1059 C   0  0  0  0  0  0  0  0  0  0  0  0
  -18.5447   13.4145   24.0541 C   0  0  0  0  0  0  0  0  0  0  0  0
  -18.7263   13.1184   23.0524 H   0  0  0  0  0  0  0  0  0  0  0  0
  -17.9497   14.6404   24.3549 C   0  0  0  0  0  0  0  0  0  0  0  0
  -17.6868   15.2921   23.5612 H   0  0  0  0  0  0  0  0  0  0  0  0
  1  2  2  0
  2  3  1  0
  2 13  1  0
  3  4  1  0
  3  5  1  0
  5  6  1  0
  5  7  1  0
  5 10  1  0
  7  8  1  0
  7  9  1  0
  7 10  1  0
 10 11  1  0
 10 12  1  0
 13 14  1  0
 13 25  2  0
 14 15  1  0
 14 16  2  0
 16 17  1  0
 16 22  1  0
 17 18  1  0
 18 19  1  0
 18 20  1  0
 18 21  1  0
 21 22  1  0
 22 23  2  0
 23 24  1  0
 23 25  1  0
 25 26  1  0
M  END
$$$$
