
     RDKit          3D

 25 26  0  0  0  0  0  0  0  0999 V2000
  -22.0819   11.2387   28.8492 O   0  0  0  0  0  0  0  0  0  0  0  0
  -21.9936   12.0556   27.9350 C   0  0  0  0  0  0  0  0  0  0  0  0
  -22.9113   13.0746   27.8557 N   0  0  0  0  0  0  0  0  0  0  0  0
  -22.7590   13.7093   27.0595 H   0  0  0  0  0  0  0  0  0  0  0  0
  -23.9763   13.3207   28.7036 C   0  0  0  0  0  0  0  0  0  0  0  0
  -24.2012   12.5732   29.8033 C   0  0  0  0  0  0  0  0  0  0  0  0
  -23.6883   11.7444   30.2130 H   0  0  0  0  0  0  0  0  0  0  0  0
  -25.3119   13.1101   30.3661 N   0  0  0  0  0  0  0  0  0  0  0  0
  -25.9865   12.6898   31.5670 C   0  0  0  0  0  0  0  0  0  0  0  0
  -25.4748   11.8208   31.9875 H   0  0  0  0  0  0  0  0  0  0  0  0
  -27.0166   12.4290   31.3116 H   0  0  0  0  0  0  0  0  0  0  0  0
  -25.9659   13.5165   32.2815 H   0  0  0  0  0  0  0  0  0  0  0  0
  -25.7912   14.1672   29.6579 N   0  0  0  0  0  0  0  0  0  0  0  0
  -24.9730   14.2939   28.6431 C   0  0  0  0  0  0  0  0  0  0  0  0
  -25.0750   15.0379   27.8960 H   0  0  0  0  0  0  0  0  0  0  0  0
  -20.9756   12.0374   26.9040 C   0  0  0  0  0  0  0  0  0  0  0  0
  -20.4532   10.9234   26.4551 N   0  0  0  0  0  0  0  0  0  0  0  0
  -19.5601   11.2540   25.5268 O   0  0  0  0  0  0  0  0  0  0  0  0
  -19.5069   12.5815   25.3781 C   0  0  0  0  0  0  0  0  0  0  0  0
  -18.5606   13.1084   24.3824 C   0  0  0  0  0  0  0  0  0  0  0  0
  -18.5926   14.2016   24.3488 H   0  0  0  0  0  0  0  0  0  0  0  0
  -18.8038   12.7298   23.3849 H   0  0  0  0  0  0  0  0  0  0  0  0
  -17.5380   12.8054   24.6256 H   0  0  0  0  0  0  0  0  0  0  0  0
  -20.3886   13.1129   26.2347 C   0  0  0  0  0  0  0  0  0  0  0  0
  -20.6010   14.1406   26.3769 H   0  0  0  0  0  0  0  0  0  0  0  0
  1  2  2  0
  2  3  1  0
  2 16  1  0
  3  4  1  0
  3  5  1  0
  5  6  2  0
  5 14  1  0
  6  7  1  0
  6  8  1  0
  8  9  1  0
  8 13  1  0
  9 10  1  0
  9 11  1  0
  9 12  1  0
 13 14  2  0
 14 15  1  0
 16 17  2  0
 16 24  1  0
 17 18  1  0
 18 19  1  0
 19 20  1  0
 19 24  2  0
 20 21  1  0
 20 22  1  0
 20 23  1  0
 24 25  1  0
M  END
$$$$
