
     RDKit          3D

 32 33  0  0  0  0  0  0  0  0999 V2000
  -19.5524   15.4651   25.7120 O   0  0  0  0  0  0  0  0  0  0  0  0
  -18.6047   14.9495   26.2715 C   0  0  0  0  0  0  0  0  0  0  0  0
  -17.6387   15.7157   26.8597 N   0  0  0  0  0  0  0  0  0  0  0  0
  -16.8864   15.1745   27.2970 H   0  0  0  0  0  0  0  0  0  0  0  0
  -17.5589   17.0984   26.9264 C   0  0  0  0  0  0  0  0  0  0  0  0
  -18.4543   17.9989   26.4710 C   0  0  0  0  0  0  0  0  0  0  0  0
  -19.3866   17.8820   25.9843 H   0  0  0  0  0  0  0  0  0  0  0  0
  -17.9179   19.2060   26.7710 N   0  0  0  0  0  0  0  0  0  0  0  0
  -18.4714   20.5143   26.4922 C   0  0  0  0  0  0  0  0  0  0  0  0
  -17.6342   21.1916   26.2919 H   0  0  0  0  0  0  0  0  0  0  0  0
  -19.0689   20.4367   25.5771 H   0  0  0  0  0  0  0  0  0  0  0  0
  -19.3244   21.0339   27.6358 C   0  0  0  0  0  0  0  0  0  0  0  0
  -18.7374   21.1304   28.5552 H   0  0  0  0  0  0  0  0  0  0  0  0
  -20.1604   20.3571   27.8436 H   0  0  0  0  0  0  0  0  0  0  0  0
  -19.7346   22.0173   27.3878 H   0  0  0  0  0  0  0  0  0  0  0  0
  -16.7142   19.0933   27.4059 N   0  0  0  0  0  0  0  0  0  0  0  0
  -16.5029   17.8053   27.4944 C   0  0  0  0  0  0  0  0  0  0  0  0
  -15.6410   17.3833   27.9422 H   0  0  0  0  0  0  0  0  0  0  0  0
  -18.4194   13.4410   26.3409 C   0  0  0  0  0  0  0  0  0  0  0  0
  -17.4460   13.2619   26.8147 H   0  0  0  0  0  0  0  0  0  0  0  0
  -19.5210   12.7493   27.1549 C   0  0  0  0  0  0  0  0  0  0  0  0
  -19.1794   12.5075   28.1670 H   0  0  0  0  0  0  0  0  0  0  0  0
  -20.4129   13.3764   27.2597 H   0  0  0  0  0  0  0  0  0  0  0  0
  -19.8587   11.4866   26.3750 C   0  0  0  0  0  0  0  0  0  0  0  0
  -19.1537   10.6863   26.6290 H   0  0  0  0  0  0  0  0  0  0  0  0
  -20.8710   11.1283   26.5819 H   0  0  0  0  0  0  0  0  0  0  0  0
  -19.6767   11.9044   24.9266 C   0  0  0  0  0  0  0  0  0  0  0  0
  -20.5374   12.4927   24.5900 H   0  0  0  0  0  0  0  0  0  0  0  0
  -19.5692   11.0465   24.2572 H   0  0  0  0  0  0  0  0  0  0  0  0
  -18.4223   12.7689   24.9597 C   0  0  0  0  0  0  0  0  0  0  0  0
  -18.3930   13.4726   24.1219 H   0  0  0  0  0  0  0  0  0  0  0  0
  -17.5384   12.1238   24.8723 H   0  0  0  0  0  0  0  0  0  0  0  0
  1  2  2  0
  2  3  1  0
  2 19  1  0
  3  4  1  0
  3  5  1  0
  5  6  2  0
  5 17  1  0
  6  7  1  0
  6  8  1  0
  8  9  1  0
  8 16  1  0
  9 10  1  0
  9 11  1  0
  9 12  1  0
 12 13  1  0
 12 14  1  0
 12 15  1  0
 16 17  2  0
 17 18  1  0
 19 20  1  0
 19 21  1  0
 19 30  1  0
 21 22  1  0
 21 23  1  0
 21 24  1  0
 24 25  1  0
 24 26  1  0
 24 27  1  0
 27 28  1  0
 27 29  1  0
 27 30  1  0
 30 31  1  0
 30 32  1  0
M  END
$$$$
