
     RDKit          3D

 23 24  0  0  0  0  0  0  0  0999 V2000
  -23.7049   11.0241   31.0499 N   0  0  0  0  0  0  0  0  0  0  0  0
  -24.7064   11.0009   31.2955 H   0  0  0  0  0  0  0  0  0  0  0  0
  -23.6451   10.4629   30.1885 H   0  0  0  0  0  0  0  0  0  0  0  0
  -23.3462   12.4390   30.7071 C   0  0  0  0  0  0  0  0  0  0  0  0
  -23.3267   12.9972   31.6477 H   0  0  0  0  0  0  0  0  0  0  0  0
  -22.3435   12.4131   30.2671 H   0  0  0  0  0  0  0  0  0  0  0  0
  -24.3256   13.0201   29.7611 C   0  0  0  0  0  0  0  0  0  0  0  0
  -24.4819   14.3256   29.5048 N   0  0  0  0  0  0  0  0  0  0  0  0
  -25.4766   14.4228   28.5931 C   0  0  0  0  0  0  0  0  0  0  0  0
  -25.9029   13.2145   28.3048 N   0  0  0  0  0  0  0  0  0  0  0  0
  -25.1711   12.3400   29.0410 N   0  0  0  0  0  0  0  0  0  0  0  0
  -25.8641   15.7169   28.1329 C   0  0  0  0  0  0  0  0  0  0  0  0
  -26.6446   15.7945   27.4202 H   0  0  0  0  0  0  0  0  0  0  0  0
  -25.2305   16.8267   28.6137 C   0  0  0  0  0  0  0  0  0  0  0  0
  -25.5078   17.7957   28.2817 H   0  0  0  0  0  0  0  0  0  0  0  0
  -24.1810   16.6844   29.5747 C   0  0  0  0  0  0  0  0  0  0  0  0
  -23.6976   17.5581   29.9366 H   0  0  0  0  0  0  0  0  0  0  0  0
  -23.8070   15.4466   30.0195 C   0  0  0  0  0  0  0  0  0  0  0  0
  -23.0432   15.2524   30.7259 H   0  0  0  0  0  0  0  0  0  0  0  0
  -22.8961   10.4072   32.1272 C   0  0  0  0  0  0  0  0  0  0  0  0
  -23.0281   10.9961   33.0372 H   0  0  0  0  0  0  0  0  0  0  0  0
  -21.8512   10.3961   31.8087 H   0  0  0  0  0  0  0  0  0  0  0  0
  -23.2634    9.3885   32.2717 H   0  0  0  0  0  0  0  0  0  0  0  0
  1  2  1  0
  1  3  1  0
  1  4  1  0
  1 20  1  0
  4  5  1  0
  4  6  1  0
  4  7  1  0
  7  8  1  0
  7 11  2  0
  8  9  1  0
  8 18  1  0
  9 10  2  0
  9 12  1  0
 10 11  1  0
 12 13  1  0
 12 14  2  0
 14 15  1  0
 14 16  1  0
 16 17  1  0
 16 18  2  0
 18 19  1  0
 20 21  1  0
 20 22  1  0
 20 23  1  0
M  END
$$$$
