
     RDKit          3D

 32 33  0  0  0  0  0  0  0  0999 V2000
  -25.0214   14.1951   29.8413 O   0  0  0  0  0  0  0  0  0  0  0  0
  -25.6070   13.5094   29.0163 C   0  0  0  0  0  0  0  0  0  0  0  0
  -26.9560   13.4382   28.8672 O   0  0  0  0  0  0  0  0  0  0  0  0
  -27.6772   14.4961   29.5029 C   0  0  0  0  0  0  0  0  0  0  0  0
  -27.3752   15.4649   29.0943 H   0  0  0  0  0  0  0  0  0  0  0  0
  -27.5212   14.4659   30.5864 H   0  0  0  0  0  0  0  0  0  0  0  0
  -28.7413   14.3490   29.3009 H   0  0  0  0  0  0  0  0  0  0  0  0
  -25.0129   12.6738   28.1211 N   0  0  0  0  0  0  0  0  0  0  0  0
  -25.6790   12.1306   27.5640 H   0  0  0  0  0  0  0  0  0  0  0  0
  -23.6399   12.4544   27.8762 C   0  0  0  0  0  0  0  0  0  0  0  0
  -23.1327   11.2453   27.3944 C   0  0  0  0  0  0  0  0  0  0  0  0
  -23.7762   10.4291   27.1985 H   0  0  0  0  0  0  0  0  0  0  0  0
  -21.7648   11.1150   27.1802 C   0  0  0  0  0  0  0  0  0  0  0  0
  -21.3805   10.1964   26.8159 H   0  0  0  0  0  0  0  0  0  0  0  0
  -20.8983   12.1773   27.4454 C   0  0  0  0  0  0  0  0  0  0  0  0
  -19.4095   12.0211   27.2303 C   0  0  0  0  0  0  0  0  0  0  0  0
  -19.1820   10.9677   27.0195 H   0  0  0  0  0  0  0  0  0  0  0  0
  -18.8727   12.2374   28.1635 H   0  0  0  0  0  0  0  0  0  0  0  0
  -18.8689   12.8936   26.1260 C   0  0  0  0  0  0  0  0  0  0  0  0
  -18.5021   14.2134   26.3617 C   0  0  0  0  0  0  0  0  0  0  0  0
  -18.5793   14.6296   27.3317 H   0  0  0  0  0  0  0  0  0  0  0  0
  -18.0291   14.9975   25.3144 C   0  0  0  0  0  0  0  0  0  0  0  0
  -17.7481   16.0064   25.4858 H   0  0  0  0  0  0  0  0  0  0  0  0
  -17.9138   14.5215   24.0766 N   0  0  0  0  0  0  0  0  0  0  0  0
  -18.2617   13.2607   23.8262 C   0  0  0  0  0  0  0  0  0  0  0  0
  -18.1640   12.9060   22.8307 H   0  0  0  0  0  0  0  0  0  0  0  0
  -18.7430   12.4208   24.8253 C   0  0  0  0  0  0  0  0  0  0  0  0
  -19.0162   11.4249   24.5882 H   0  0  0  0  0  0  0  0  0  0  0  0
  -21.4166   13.3772   27.9389 C   0  0  0  0  0  0  0  0  0  0  0  0
  -20.7697   14.1899   28.1487 H   0  0  0  0  0  0  0  0  0  0  0  0
  -22.7830   13.5182   28.1566 C   0  0  0  0  0  0  0  0  0  0  0  0
  -23.1708   14.4318   28.5267 H   0  0  0  0  0  0  0  0  0  0  0  0
  1  2  2  0
  2  3  1  0
  2  8  1  0
  3  4  1  0
  4  5  1  0
  4  6  1  0
  4  7  1  0
  8  9  1  0
  8 10  1  0
 10 11  1  0
 10 31  2  0
 11 12  1  0
 11 13  2  0
 13 14  1  0
 13 15  1  0
 15 16  1  0
 15 29  2  0
 16 17  1  0
 16 18  1  0
 16 19  1  0
 19 20  1  0
 19 27  2  0
 20 21  1  0
 20 22  2  0
 22 23  1  0
 22 24  1  0
 24 25  2  0
 25 26  1  0
 25 27  1  0
 27 28  1  0
 29 30  1  0
 29 31  1  0
 31 32  1  0
M  END
$$$$
