
     RDKit          3D

 24 25  0  0  0  0  0  0  0  0999 V2000
  -17.3353   13.3839   23.5348 F   0  0  0  0  0  0  0  0  0  0  0  0
  -18.1500   13.0715   24.5543 C   0  0  0  0  0  0  0  0  0  0  0  0
  -18.4825   14.0323   25.5303 C   0  0  0  0  0  0  0  0  0  0  0  0
  -18.0134   15.3335   25.5171 N   0  0  0  0  0  0  0  0  0  0  0  0
  -17.8915   15.8331   24.6414 H   0  0  0  0  0  0  0  0  0  0  0  0
  -17.6495   16.1138   26.6911 C   0  0  0  0  0  0  0  0  0  0  0  0
  -18.4365   16.8514   26.8931 H   0  0  0  0  0  0  0  0  0  0  0  0
  -17.5769   15.4481   27.5593 H   0  0  0  0  0  0  0  0  0  0  0  0
  -16.3478   16.8597   26.5817 C   0  0  0  0  0  0  0  0  0  0  0  0
  -15.2364   16.3717   27.0778 N   0  0  0  0  0  0  0  0  0  0  0  0
  -14.2867   17.3030   26.7963 N   0  0  0  0  0  0  0  0  0  0  0  0
  -13.2928   17.1939   27.0698 H   0  0  0  0  0  0  0  0  0  0  0  0
  -14.7966   18.3590   26.1292 C   0  0  0  0  0  0  0  0  0  0  0  0
  -14.2048   19.1823   25.8217 H   0  0  0  0  0  0  0  0  0  0  0  0
  -16.1122   18.0923   25.9803 C   0  0  0  0  0  0  0  0  0  0  0  0
  -16.8303   18.7014   25.4922 H   0  0  0  0  0  0  0  0  0  0  0  0
  -19.3263   13.6529   26.5771 C   0  0  0  0  0  0  0  0  0  0  0  0
  -19.5787   14.3529   27.3305 H   0  0  0  0  0  0  0  0  0  0  0  0
  -19.8329   12.3543   26.6313 C   0  0  0  0  0  0  0  0  0  0  0  0
  -20.4753   12.0748   27.4265 H   0  0  0  0  0  0  0  0  0  0  0  0
  -19.5033   11.4190   25.6481 C   0  0  0  0  0  0  0  0  0  0  0  0
  -19.8956   10.4356   25.6993 H   0  0  0  0  0  0  0  0  0  0  0  0
  -18.6544   11.7803   24.6033 C   0  0  0  0  0  0  0  0  0  0  0  0
  -18.3906   11.0784   23.8554 H   0  0  0  0  0  0  0  0  0  0  0  0
  1  2  1  0
  2  3  1  0
  2 23  2  0
  3  4  1  0
  3 17  2  0
  4  5  1  0
  4  6  1  0
  6  7  1  0
  6  8  1  0
  6  9  1  0
  9 10  2  0
  9 15  1  0
 10 11  1  0
 11 12  1  0
 11 13  1  0
 13 14  1  0
 13 15  2  0
 15 16  1  0
 17 18  1  0
 17 19  1  0
 19 20  1  0
 19 21  2  0
 21 22  1  0
 21 23  1  0
 23 24  1  0
M  END
$$$$
