
     RDKit          3D

 16 16  0  0  0  0  0  0  0  0999 V2000
  -17.9164   16.6318   27.4429 Br  0  0  0  0  0  0  0  0  0  0  0  0
  -18.3525   15.2421   26.2747 C   0  0  0  0  0  0  0  0  0  0  0  0
  -19.0688   14.1295   26.5384 C   0  0  0  0  0  0  0  0  0  0  0  0
  -19.5421   13.7875   27.4212 H   0  0  0  0  0  0  0  0  0  0  0  0
  -19.1108   13.4372   25.3767 N   0  0  0  0  0  0  0  0  0  0  0  0
  -19.7485   12.1612   25.1187 C   0  0  0  0  0  0  0  0  0  0  0  0
  -20.6153   12.0967   25.7856 H   0  0  0  0  0  0  0  0  0  0  0  0
  -20.1049   12.1795   24.0828 H   0  0  0  0  0  0  0  0  0  0  0  0
  -18.8009   10.9962   25.3575 C   0  0  0  0  0  0  0  0  0  0  0  0
  -19.2607   10.0674   25.0083 H   0  0  0  0  0  0  0  0  0  0  0  0
  -18.5433   10.8877   26.4163 H   0  0  0  0  0  0  0  0  0  0  0  0
  -17.6027   11.1879   24.6116 O   0  0  0  0  0  0  0  0  0  0  0  0
  -17.8531   11.2287   23.6718 H   0  0  0  0  0  0  0  0  0  0  0  0
  -18.4459   14.0804   24.3781 N   0  0  0  0  0  0  0  0  0  0  0  0
  -17.9885   15.1720   24.9345 C   0  0  0  0  0  0  0  0  0  0  0  0
  -17.4177   15.8975   24.4147 H   0  0  0  0  0  0  0  0  0  0  0  0
  1  2  1  0
  2  3  2  0
  2 15  1  0
  3  4  1  0
  3  5  1  0
  5  6  1  0
  5 14  1  0
  6  7  1  0
  6  8  1  0
  6  9  1  0
  9 10  1  0
  9 11  1  0
  9 12  1  0
 12 13  1  0
 14 15  2  0
 15 16  1  0
M  END
$$$$
