
     RDKit          3D

 17 18  0  0  0  0  0  0  0  0999 V2000
  -21.9463   11.1179   27.4850 Br  0  0  0  0  0  0  0  0  0  0  0  0
  -20.7275   12.3950   26.8073 C   0  0  0  0  0  0  0  0  0  0  0  0
  -20.0477   12.1437   25.6178 C   0  0  0  0  0  0  0  0  0  0  0  0
  -20.1973   11.2452   25.0790 H   0  0  0  0  0  0  0  0  0  0  0  0
  -19.1625   13.1114   25.1621 C   0  0  0  0  0  0  0  0  0  0  0  0
  -18.3838   13.0767   24.0148 N   0  0  0  0  0  0  0  0  0  0  0  0
  -18.3363   12.3257   23.3156 H   0  0  0  0  0  0  0  0  0  0  0  0
  -17.6409   14.2024   23.8958 C   0  0  0  0  0  0  0  0  0  0  0  0
  -16.8954   14.3566   22.9570 O   0  0  0  0  0  0  0  0  0  0  0  0
  -17.9318   15.1181   25.0825 C   0  0  0  0  0  0  0  0  0  0  0  0
  -17.0204   15.2740   25.6641 H   0  0  0  0  0  0  0  0  0  0  0  0
  -18.3627   16.0577   24.7288 H   0  0  0  0  0  0  0  0  0  0  0  0
  -18.9348   14.2967   25.8317 C   0  0  0  0  0  0  0  0  0  0  0  0
  -19.6148   14.5488   27.0183 C   0  0  0  0  0  0  0  0  0  0  0  0
  -19.4558   15.4536   27.5489 H   0  0  0  0  0  0  0  0  0  0  0  0
  -20.5122   13.5939   27.5041 C   0  0  0  0  0  0  0  0  0  0  0  0
  -21.0361   13.7746   28.4070 H   0  0  0  0  0  0  0  0  0  0  0  0
  1  2  1  0
  2  3  1  0
  2 16  2  0
  3  4  1  0
  3  5  2  0
  5  6  1  0
  5 13  1  0
  6  7  1  0
  6  8  1  0
  8  9  2  0
  8 10  1  0
 10 11  1  0
 10 12  1  0
 10 13  1  0
 13 14  2  0
 14 15  1  0
 14 16  1  0
 16 17  1  0
M  END
$$$$
