
     RDKit          3D

 26 27  0  0  0  0  0  0  0  0999 V2000
  -19.2466   11.5159   25.2406 O   0  0  0  0  0  0  0  0  0  0  0  0
  -19.0136   12.7176   25.4237 C   0  0  0  0  0  0  0  0  0  0  0  0
  -19.2323   13.2804   26.6884 N   0  0  0  0  0  0  0  0  0  0  0  0
  -19.7042   12.4604   27.8012 C   0  0  0  0  0  0  0  0  0  0  0  0
  -19.2519   11.4650   27.7171 H   0  0  0  0  0  0  0  0  0  0  0  0
  -19.3684   12.8941   28.7494 H   0  0  0  0  0  0  0  0  0  0  0  0
  -21.1800   12.3593   27.7631 C   0  0  0  0  0  0  0  0  0  0  0  0
  -21.7072   11.2725   27.1949 O   0  0  0  0  0  0  0  0  0  0  0  0
  -23.0447   11.3371   27.2283 N   0  0  0  0  0  0  0  0  0  0  0  0
  -23.3577   12.4445   27.8073 C   0  0  0  0  0  0  0  0  0  0  0  0
  -24.7692   12.8288   28.0138 C   0  0  0  0  0  0  0  0  0  0  0  0
  -24.8505   13.8735   28.3318 H   0  0  0  0  0  0  0  0  0  0  0  0
  -25.2265   12.2037   28.7882 H   0  0  0  0  0  0  0  0  0  0  0  0
  -25.3460   12.7134   27.0904 H   0  0  0  0  0  0  0  0  0  0  0  0
  -22.2042   13.1295   28.1610 C   0  0  0  0  0  0  0  0  0  0  0  0
  -22.1376   14.0697   28.6441 H   0  0  0  0  0  0  0  0  0  0  0  0
  -19.0151   14.6148   26.9652 N   0  0  0  0  0  0  0  0  0  0  0  0
  -18.5865   15.4105   26.0356 C   0  0  0  0  0  0  0  0  0  0  0  0
  -18.3594   16.8601   26.3590 C   0  0  0  0  0  0  0  0  0  0  0  0
  -17.6670   16.9383   27.2033 H   0  0  0  0  0  0  0  0  0  0  0  0
  -19.3128   17.3200   26.6373 H   0  0  0  0  0  0  0  0  0  0  0  0
  -17.9403   17.4013   25.5072 H   0  0  0  0  0  0  0  0  0  0  0  0
  -18.3302   14.9271   24.7195 C   0  0  0  0  0  0  0  0  0  0  0  0
  -17.9771   15.6014   23.9824 H   0  0  0  0  0  0  0  0  0  0  0  0
  -18.5362   13.6126   24.4192 C   0  0  0  0  0  0  0  0  0  0  0  0
  -18.3556   13.2228   23.4524 H   0  0  0  0  0  0  0  0  0  0  0  0
  1  2  2  0
  2  3  1  0
  2 25  1  0
  3  4  1  0
  3 17  1  0
  4  5  1  0
  4  6  1  0
  4  7  1  0
  7  8  1  0
  7 15  2  0
  8  9  1  0
  9 10  2  0
 10 11  1  0
 10 15  1  0
 11 12  1  0
 11 13  1  0
 11 14  1  0
 15 16  1  0
 17 18  2  0
 18 19  1  0
 18 23  1  0
 19 20  1  0
 19 21  1  0
 19 22  1  0
 23 24  1  0
 23 25  2  0
 25 26  1  0
M  END
$$$$
