
     RDKit          3D

 39 40  0  0  0  0  0  0  0  0999 V2000
  -15.8381   18.4385   25.9454 O   0  0  0  0  0  0  0  0  0  0  0  0
  -16.7916   17.8846   26.4835 C   0  0  0  0  0  0  0  0  0  0  0  0
  -16.9963   16.3774   26.3388 C   0  0  0  0  0  0  0  0  0  0  0  0
  -16.1191   15.9809   25.8136 H   0  0  0  0  0  0  0  0  0  0  0  0
  -16.9867   15.8987   27.3257 H   0  0  0  0  0  0  0  0  0  0  0  0
  -18.1442   15.9932   25.6006 O   0  0  0  0  0  0  0  0  0  0  0  0
  -18.4378   14.6588   25.4800 C   0  0  0  0  0  0  0  0  0  0  0  0
  -18.1797   13.8665   24.3620 C   0  0  0  0  0  0  0  0  0  0  0  0
  -17.7272   14.2729   23.4957 H   0  0  0  0  0  0  0  0  0  0  0  0
  -18.5270   12.5194   24.3857 C   0  0  0  0  0  0  0  0  0  0  0  0
  -18.3272   11.9119   23.5396 H   0  0  0  0  0  0  0  0  0  0  0  0
  -19.1372   11.9655   25.5115 C   0  0  0  0  0  0  0  0  0  0  0  0
  -19.4801   10.5033   25.5436 C   0  0  0  0  0  0  0  0  0  0  0  0
  -18.6376    9.9323   25.9461 H   0  0  0  0  0  0  0  0  0  0  0  0
  -20.3616   10.3215   26.1660 H   0  0  0  0  0  0  0  0  0  0  0  0
  -19.7101   10.1337   24.5392 H   0  0  0  0  0  0  0  0  0  0  0  0
  -19.3995   12.7722   26.6199 C   0  0  0  0  0  0  0  0  0  0  0  0
  -19.8674   12.3607   27.4763 H   0  0  0  0  0  0  0  0  0  0  0  0
  -19.0542   14.1199   26.6044 C   0  0  0  0  0  0  0  0  0  0  0  0
  -19.2603   14.7365   27.4409 H   0  0  0  0  0  0  0  0  0  0  0  0
  -17.6747   18.6357   27.1913 N   0  0  0  0  0  0  0  0  0  0  0  0
  -17.3951   20.0557   27.4493 C   0  0  0  0  0  0  0  0  0  0  0  0
  -17.1872   20.1450   28.5233 H   0  0  0  0  0  0  0  0  0  0  0  0
  -16.4990   20.3951   26.9213 H   0  0  0  0  0  0  0  0  0  0  0  0
  -18.5759   20.9525   27.0686 C   0  0  0  0  0  0  0  0  0  0  0  0
  -18.7770   20.9197   25.9927 H   0  0  0  0  0  0  0  0  0  0  0  0
  -18.3989   21.9844   27.3854 H   0  0  0  0  0  0  0  0  0  0  0  0
  -19.8322   20.4688   27.7765 N   0  0  0  0  0  0  0  0  0  0  0  0
  -19.6555   20.5180   28.7901 H   0  0  0  0  0  0  0  0  0  0  0  0
  -21.0074   21.3608   27.5002 C   0  0  0  0  0  0  0  0  0  0  0  0
  -21.8569   20.9907   28.0803 H   0  0  0  0  0  0  0  0  0  0  0  0
  -20.7474   22.3727   27.8231 H   0  0  0  0  0  0  0  0  0  0  0  0
  -21.2231   21.3346   26.4291 H   0  0  0  0  0  0  0  0  0  0  0  0
  -20.1273   19.0194   27.4312 C   0  0  0  0  0  0  0  0  0  0  0  0
  -20.3476   18.9821   26.3589 H   0  0  0  0  0  0  0  0  0  0  0  0
  -21.0107   18.7178   28.0022 H   0  0  0  0  0  0  0  0  0  0  0  0
  -18.9229   18.1324   27.7810 C   0  0  0  0  0  0  0  0  0  0  0  0
  -19.1434   17.1153   27.4532 H   0  0  0  0  0  0  0  0  0  0  0  0
  -18.7757   18.1074   28.8678 H   0  0  0  0  0  0  0  0  0  0  0  0
  1  2  2  0
  2  3  1  0
  2 21  1  0
  3  4  1  0
  3  5  1  0
  3  6  1  0
  6  7  1  0
  7  8  1  0
  7 19  2  0
  8  9  1  0
  8 10  2  0
 10 11  1  0
 10 12  1  0
 12 13  1  0
 12 17  2  0
 13 14  1  0
 13 15  1  0
 13 16  1  0
 17 18  1  0
 17 19  1  0
 19 20  1  0
 21 22  1  0
 21 37  1  0
 22 23  1  0
 22 24  1  0
 22 25  1  0
 25 26  1  0
 25 27  1  0
 25 28  1  0
 28 29  1  0
 28 30  1  0
 28 34  1  0
 30 31  1  0
 30 32  1  0
 30 33  1  0
 34 35  1  0
 34 36  1  0
 34 37  1  0
 37 38  1  0
 37 39  1  0
M  END
$$$$
