
     RDKit          3D

 19 19  0  0  0  0  0  0  0  0999 V2000
  -16.6864   17.3186   26.4930 O   0  0  0  0  0  0  0  0  0  0  0  0
  -17.8956   17.2139   26.6408 C   0  0  0  0  0  0  0  0  0  0  0  0
  -18.5069   16.0378   26.6502 N   0  0  0  0  0  0  0  0  0  0  0  0
  -19.5048   15.9874   26.7628 H   0  0  0  0  0  0  0  0  0  0  0  0
  -17.7831   14.7939   26.4946 C   0  0  0  0  0  0  0  0  0  0  0  0
  -16.8132   15.0113   26.0343 H   0  0  0  0  0  0  0  0  0  0  0  0
  -17.5976   14.3671   27.4862 H   0  0  0  0  0  0  0  0  0  0  0  0
  -18.5856   13.8709   25.6497 C   0  0  0  0  0  0  0  0  0  0  0  0
  -19.3692   12.8498   26.0697 C   0  0  0  0  0  0  0  0  0  0  0  0
  -19.5879   12.4810   27.0389 H   0  0  0  0  0  0  0  0  0  0  0  0
  -19.8938   12.3061   24.9507 N   0  0  0  0  0  0  0  0  0  0  0  0
  -20.5455   11.4997   24.9253 H   0  0  0  0  0  0  0  0  0  0  0  0
  -19.4649   12.9411   23.8290 N   0  0  0  0  0  0  0  0  0  0  0  0
  -18.6765   13.8863   24.2615 C   0  0  0  0  0  0  0  0  0  0  0  0
  -18.1761   14.5651   23.6171 H   0  0  0  0  0  0  0  0  0  0  0  0
  -18.7900   18.4128   26.7931 C   0  0  0  0  0  0  0  0  0  0  0  0
  -19.7035   18.1582   27.3378 H   0  0  0  0  0  0  0  0  0  0  0  0
  -19.0561   18.7886   25.8023 H   0  0  0  0  0  0  0  0  0  0  0  0
  -18.2609   19.1915   27.3495 H   0  0  0  0  0  0  0  0  0  0  0  0
  1  2  2  0
  2  3  1  0
  2 16  1  0
  3  4  1  0
  3  5  1  0
  5  6  1  0
  5  7  1  0
  5  8  1  0
  8  9  2  0
  8 14  1  0
  9 10  1  0
  9 11  1  0
 11 12  1  0
 11 13  1  0
 13 14  2  0
 14 15  1  0
 16 17  1  0
 16 18  1  0
 16 19  1  0
M  END
$$$$
