
     RDKit          3D

 31 32  0  0  0  0  0  0  0  0999 V2000
  -20.7764   13.1998   28.5356 O   0  0  0  0  0  0  0  0  0  0  0  0
  -20.7972   12.4700   27.5531 C   0  0  0  0  0  0  0  0  0  0  0  0
  -21.7540   11.4997   27.5284 N   0  0  0  0  0  0  0  0  0  0  0  0
  -21.8829   10.9196   26.6909 H   0  0  0  0  0  0  0  0  0  0  0  0
  -22.6447   11.2680   28.6476 C   0  0  0  0  0  0  0  0  0  0  0  0
  -22.0384   11.0849   29.5424 H   0  0  0  0  0  0  0  0  0  0  0  0
  -23.2323   10.3649   28.4478 H   0  0  0  0  0  0  0  0  0  0  0  0
  -23.5195   12.4566   28.8293 C   0  0  0  0  0  0  0  0  0  0  0  0
  -24.3822   12.9822   27.9278 C   0  0  0  0  0  0  0  0  0  0  0  0
  -24.6346   12.6920   26.9424 H   0  0  0  0  0  0  0  0  0  0  0  0
  -24.9423   14.0538   28.5322 N   0  0  0  0  0  0  0  0  0  0  0  0
  -25.9316   14.9652   27.9968 C   0  0  0  0  0  0  0  0  0  0  0  0
  -25.3984   15.7693   27.4777 H   0  0  0  0  0  0  0  0  0  0  0  0
  -26.5182   14.4167   27.2524 H   0  0  0  0  0  0  0  0  0  0  0  0
  -26.8298   15.5387   29.0777 C   0  0  0  0  0  0  0  0  0  0  0  0
  -26.2453   16.0840   29.8267 H   0  0  0  0  0  0  0  0  0  0  0  0
  -27.3796   14.7467   29.5967 H   0  0  0  0  0  0  0  0  0  0  0  0
  -27.5571   16.2296   28.6407 H   0  0  0  0  0  0  0  0  0  0  0  0
  -24.4649   14.2252   29.7907 N   0  0  0  0  0  0  0  0  0  0  0  0
  -23.6048   13.2588   29.9606 C   0  0  0  0  0  0  0  0  0  0  0  0
  -23.0581   13.1213   30.8593 H   0  0  0  0  0  0  0  0  0  0  0  0
  -19.8776   12.6347   26.4109 C   0  0  0  0  0  0  0  0  0  0  0  0
  -19.5111   11.4913   25.6897 C   0  0  0  0  0  0  0  0  0  0  0  0
  -19.8939   10.5434   25.9775 H   0  0  0  0  0  0  0  0  0  0  0  0
  -18.6854   11.5398   24.6424 N   0  0  0  0  0  0  0  0  0  0  0  0
  -18.1856   12.7096   24.2492 C   0  0  0  0  0  0  0  0  0  0  0  0
  -17.5320   12.7157   23.4132 H   0  0  0  0  0  0  0  0  0  0  0  0
  -18.5046   13.8962   24.9040 C   0  0  0  0  0  0  0  0  0  0  0  0
  -18.0961   14.8120   24.5649 H   0  0  0  0  0  0  0  0  0  0  0  0
  -19.3607   13.8690   25.9974 C   0  0  0  0  0  0  0  0  0  0  0  0
  -19.6162   14.7686   26.4940 H   0  0  0  0  0  0  0  0  0  0  0  0
  1  2  2  0
  2  3  1  0
  2 22  1  0
  3  4  1  0
  3  5  1  0
  5  6  1  0
  5  7  1  0
  5  8  1  0
  8  9  2  0
  8 20  1  0
  9 10  1  0
  9 11  1  0
 11 12  1  0
 11 19  1  0
 12 13  1  0
 12 14  1  0
 12 15  1  0
 15 16  1  0
 15 17  1  0
 15 18  1  0
 19 20  2  0
 20 21  1  0
 22 23  1  0
 22 30  2  0
 23 24  1  0
 23 25  2  0
 25 26  1  0
 26 27  1  0
 26 28  2  0
 28 29  1  0
 28 30  1  0
 30 31  1  0
M  END
$$$$
