
     RDKit          3D

 23 23  0  0  0  0  0  0  0  0999 V2000
  -17.3999   15.4283   25.5749 Cl  0  0  0  0  0  0  0  0  0  0  0  0
  -18.8421   14.6087   26.0364 C   0  0  0  0  0  0  0  0  0  0  0  0
  -19.4149   13.5659   25.2908 C   0  0  0  0  0  0  0  0  0  0  0  0
  -18.8829   13.0206   24.0242 C   0  0  0  0  0  0  0  0  0  0  0  0
  -17.9123   13.3890   23.3797 O   0  0  0  0  0  0  0  0  0  0  0  0
  -19.5323   11.9689   23.4650 N   0  0  0  0  0  0  0  0  0  0  0  0
  -19.1736   11.5875   22.5813 H   0  0  0  0  0  0  0  0  0  0  0  0
  -20.3676   11.5838   23.9240 H   0  0  0  0  0  0  0  0  0  0  0  0
  -20.5542   12.9935   25.7550 N   0  0  0  0  0  0  0  0  0  0  0  0
  -21.1108   13.4105   26.8818 C   0  0  0  0  0  0  0  0  0  0  0  0
  -22.3766   12.7407   27.3532 C   0  0  0  0  0  0  0  0  0  0  0  0
  -23.0721   12.6848   26.5062 H   0  0  0  0  0  0  0  0  0  0  0  0
  -22.0971   11.3143   27.8230 C   0  0  0  0  0  0  0  0  0  0  0  0
  -21.4243   11.2959   28.6886 H   0  0  0  0  0  0  0  0  0  0  0  0
  -21.6283   10.7242   27.0271 H   0  0  0  0  0  0  0  0  0  0  0  0
  -23.0268   10.8120   28.1105 H   0  0  0  0  0  0  0  0  0  0  0  0
  -23.0489   13.5605   28.4545 C   0  0  0  0  0  0  0  0  0  0  0  0
  -22.4174   13.6361   29.3467 H   0  0  0  0  0  0  0  0  0  0  0  0
  -23.9979   13.1018   28.7536 H   0  0  0  0  0  0  0  0  0  0  0  0
  -23.2611   14.5786   28.1108 H   0  0  0  0  0  0  0  0  0  0  0  0
  -20.5834   14.4016   27.6066 N   0  0  0  0  0  0  0  0  0  0  0  0
  -19.4754   14.9997   27.2103 C   0  0  0  0  0  0  0  0  0  0  0  0
  -19.0731   15.7845   27.8003 H   0  0  0  0  0  0  0  0  0  0  0  0
  1  2  1  0
  2  3  1  0
  2 22  2  0
  3  4  1  0
  3  9  2  0
  4  5  2  0
  4  6  1  0
  6  7  1  0
  6  8  1  0
  9 10  1  0
 10 11  1  0
 10 21  2  0
 11 12  1  0
 11 13  1  0
 11 17  1  0
 13 14  1  0
 13 15  1  0
 13 16  1  0
 17 18  1  0
 17 19  1  0
 17 20  1  0
 21 22  1  0
 22 23  1  0
M  END
$$$$
