
     RDKit          3D

 31 32  0  0  0  0  0  0  0  0999 V2000
  -22.1449   10.7079   27.1561 O   0  0  0  0  0  0  0  0  0  0  0  0
  -21.4023   11.6629   27.3427 C   0  0  0  0  0  0  0  0  0  0  0  0
  -21.5957   12.3774   28.4871 N   0  0  0  0  0  0  0  0  0  0  0  0
  -20.9453   13.1287   28.7456 H   0  0  0  0  0  0  0  0  0  0  0  0
  -22.6867   12.0929   29.3973 C   0  0  0  0  0  0  0  0  0  0  0  0
  -22.3954   12.4197   30.4023 H   0  0  0  0  0  0  0  0  0  0  0  0
  -22.8452   11.0090   29.4278 H   0  0  0  0  0  0  0  0  0  0  0  0
  -23.9062   12.8078   28.9359 C   0  0  0  0  0  0  0  0  0  0  0  0
  -24.4337   13.9424   29.4532 C   0  0  0  0  0  0  0  0  0  0  0  0
  -24.1250   14.5615   30.2535 H   0  0  0  0  0  0  0  0  0  0  0  0
  -25.5380   14.2057   28.7194 N   0  0  0  0  0  0  0  0  0  0  0  0
  -26.4648   15.3084   28.8646 C   0  0  0  0  0  0  0  0  0  0  0  0
  -27.3785   15.0508   28.3176 H   0  0  0  0  0  0  0  0  0  0  0  0
  -26.7207   15.3878   29.9264 H   0  0  0  0  0  0  0  0  0  0  0  0
  -25.8899   16.6147   28.3477 C   0  0  0  0  0  0  0  0  0  0  0  0
  -25.6283   16.5369   27.2868 H   0  0  0  0  0  0  0  0  0  0  0  0
  -24.9827   16.8917   28.8947 H   0  0  0  0  0  0  0  0  0  0  0  0
  -26.6185   17.4228   28.4629 H   0  0  0  0  0  0  0  0  0  0  0  0
  -25.7284   13.2756   27.7499 N   0  0  0  0  0  0  0  0  0  0  0  0
  -24.7409   12.4344   27.8897 C   0  0  0  0  0  0  0  0  0  0  0  0
  -24.6109   11.5852   27.2673 H   0  0  0  0  0  0  0  0  0  0  0  0
  -20.3093   12.0226   26.4190 C   0  0  0  0  0  0  0  0  0  0  0  0
  -19.8911   13.3588   26.3815 C   0  0  0  0  0  0  0  0  0  0  0  0
  -20.3644   14.0753   27.0065 H   0  0  0  0  0  0  0  0  0  0  0  0
  -18.9113   13.7798   25.5793 N   0  0  0  0  0  0  0  0  0  0  0  0
  -18.2919   12.9120   24.7818 C   0  0  0  0  0  0  0  0  0  0  0  0
  -17.5169   13.2771   24.1556 H   0  0  0  0  0  0  0  0  0  0  0  0
  -18.6385   11.5637   24.7622 C   0  0  0  0  0  0  0  0  0  0  0  0
  -18.1242   10.8961   24.1215 H   0  0  0  0  0  0  0  0  0  0  0  0
  -19.6565   11.1037   25.5877 C   0  0  0  0  0  0  0  0  0  0  0  0
  -19.9187   10.0779   25.5859 H   0  0  0  0  0  0  0  0  0  0  0  0
  1  2  2  0
  2  3  1  0
  2 22  1  0
  3  4  1  0
  3  5  1  0
  5  6  1  0
  5  7  1  0
  5  8  1  0
  8  9  2  0
  8 20  1  0
  9 10  1  0
  9 11  1  0
 11 12  1  0
 11 19  1  0
 12 13  1  0
 12 14  1  0
 12 15  1  0
 15 16  1  0
 15 17  1  0
 15 18  1  0
 19 20  2  0
 20 21  1  0
 22 23  1  0
 22 30  2  0
 23 24  1  0
 23 25  2  0
 25 26  1  0
 26 27  1  0
 26 28  2  0
 28 29  1  0
 28 30  1  0
 30 31  1  0
M  END
$$$$
