
     RDKit          3D

 26 26  0  0  0  0  0  0  0  0999 V2000
  -26.1703   13.8800   26.9558 F   0  0  0  0  0  0  0  0  0  0  0  0
  -25.0659   13.4655   27.5960 C   0  0  0  0  0  0  0  0  0  0  0  0
  -24.4902   14.2012   28.6481 C   0  0  0  0  0  0  0  0  0  0  0  0
  -25.0533   15.4007   29.1124 N   0  0  0  0  0  0  0  0  0  0  0  0
  -24.1684   16.3371   29.8448 C   0  0  0  0  0  0  0  0  0  0  0  0
  -24.3380   16.1845   31.3677 C   0  0  0  0  0  0  0  0  0  0  0  0
  -25.2632   16.6679   31.6998 H   0  0  0  0  0  0  0  0  0  0  0  0
  -23.5102   16.6478   31.9135 H   0  0  0  0  0  0  0  0  0  0  0  0
  -24.3978   14.8138   31.7569 O   0  0  0  0  0  0  0  0  0  0  0  0
  -23.6996   14.3763   31.2374 H   0  0  0  0  0  0  0  0  0  0  0  0
  -24.3677   17.7932   29.4066 C   0  0  0  0  0  0  0  0  0  0  0  0
  -23.5762   18.4237   29.8275 H   0  0  0  0  0  0  0  0  0  0  0  0
  -25.3199   18.2098   29.7478 H   0  0  0  0  0  0  0  0  0  0  0  0
  -24.3230   17.8848   28.3169 H   0  0  0  0  0  0  0  0  0  0  0  0
  -26.4554   15.7088   28.8711 C   0  0  0  0  0  0  0  0  0  0  0  0
  -26.6116   16.0144   27.8313 H   0  0  0  0  0  0  0  0  0  0  0  0
  -26.8208   16.5180   29.5102 H   0  0  0  0  0  0  0  0  0  0  0  0
  -27.0964   14.8496   29.1023 H   0  0  0  0  0  0  0  0  0  0  0  0
  -23.3767   13.7785   29.2665 N   0  0  0  0  0  0  0  0  0  0  0  0
  -22.8054   12.6406   28.8528 C   0  0  0  0  0  0  0  0  0  0  0  0
  -21.9239   12.3243   29.3487 H   0  0  0  0  0  0  0  0  0  0  0  0
  -23.3272   11.8749   27.8082 C   0  0  0  0  0  0  0  0  0  0  0  0
  -22.8417   10.9813   27.5138 H   0  0  0  0  0  0  0  0  0  0  0  0
  -24.4869   12.2895   27.1584 C   0  0  0  0  0  0  0  0  0  0  0  0
  -24.9134   11.7335   26.3643 H   0  0  0  0  0  0  0  0  0  0  0  0
  -23.1202   16.1183   29.6000 H   0  0  0  0  0  0  0  0  0  0  0  0
  1  2  1  0
  2  3  1  0
  2 24  2  0
  3  4  1  0
  3 19  2  0
  4  5  1  0
  4 15  1  0
  5  6  1  0
  5 11  1  0
  5 26  1  0
  6  7  1  0
  6  8  1  0
  6  9  1  0
  9 10  1  0
 11 12  1  0
 11 13  1  0
 11 14  1  0
 15 16  1  0
 15 17  1  0
 15 18  1  0
 19 20  1  0
 20 21  1  0
 20 22  2  0
 22 23  1  0
 22 24  1  0
 24 25  1  0
M  END
$$$$
