
     RDKit          3D

 39 40  0  0  0  0  0  0  0  0999 V2000
  -26.1456   15.8351   31.4965 O   0  0  0  0  0  0  0  0  0  0  0  0
  -25.9220   14.6816   31.1432 C   0  0  0  0  0  0  0  0  0  0  0  0
  -26.9048   13.9437   30.2354 C   0  0  0  0  0  0  0  0  0  0  0  0
  -27.0024   12.9237   30.6259 H   0  0  0  0  0  0  0  0  0  0  0  0
  -27.9046   14.3865   30.3225 H   0  0  0  0  0  0  0  0  0  0  0  0
  -26.5117   13.8437   28.8768 O   0  0  0  0  0  0  0  0  0  0  0  0
  -25.2020   13.5586   28.5858 C   0  0  0  0  0  0  0  0  0  0  0  0
  -24.1144   14.3985   28.8221 C   0  0  0  0  0  0  0  0  0  0  0  0
  -24.2458   15.3560   29.2538 H   0  0  0  0  0  0  0  0  0  0  0  0
  -22.8353   13.9707   28.4806 C   0  0  0  0  0  0  0  0  0  0  0  0
  -22.0046   14.6040   28.6640 H   0  0  0  0  0  0  0  0  0  0  0  0
  -22.6400   12.7183   27.8976 C   0  0  0  0  0  0  0  0  0  0  0  0
  -21.2533   12.2484   27.5612 C   0  0  0  0  0  0  0  0  0  0  0  0
  -20.8241   11.7143   28.4146 H   0  0  0  0  0  0  0  0  0  0  0  0
  -21.2658   11.5807   26.6944 H   0  0  0  0  0  0  0  0  0  0  0  0
  -20.6045   13.0937   27.3105 H   0  0  0  0  0  0  0  0  0  0  0  0
  -23.7385   11.8917   27.6568 C   0  0  0  0  0  0  0  0  0  0  0  0
  -23.5994   10.9417   27.2096 H   0  0  0  0  0  0  0  0  0  0  0  0
  -25.0207   12.3118   27.9964 C   0  0  0  0  0  0  0  0  0  0  0  0
  -25.8573   11.6901   27.8065 H   0  0  0  0  0  0  0  0  0  0  0  0
  -24.7981   14.0632   31.5897 N   0  0  0  0  0  0  0  0  0  0  0  0
  -23.7869   14.8221   32.3399 C   0  0  0  0  0  0  0  0  0  0  0  0
  -22.9086   14.9061   31.6870 H   0  0  0  0  0  0  0  0  0  0  0  0
  -24.1223   15.8406   32.5565 H   0  0  0  0  0  0  0  0  0  0  0  0
  -23.4014   14.1281   33.6488 C   0  0  0  0  0  0  0  0  0  0  0  0
  -24.2485   14.0719   34.3404 H   0  0  0  0  0  0  0  0  0  0  0  0
  -22.5605   14.6387   34.1271 H   0  0  0  0  0  0  0  0  0  0  0  0
  -22.9615   12.7013   33.3588 N   0  0  0  0  0  0  0  0  0  0  0  0
  -22.1509   12.7494   32.7251 H   0  0  0  0  0  0  0  0  0  0  0  0
  -22.4968   11.9970   34.6002 C   0  0  0  0  0  0  0  0  0  0  0  0
  -22.1443   11.0027   34.3132 H   0  0  0  0  0  0  0  0  0  0  0  0
  -21.6738   12.5753   35.0293 H   0  0  0  0  0  0  0  0  0  0  0  0
  -23.3342   11.9293   35.2991 H   0  0  0  0  0  0  0  0  0  0  0  0
  -24.0574   11.9286   32.6454 C   0  0  0  0  0  0  0  0  0  0  0  0
  -24.9018   11.8526   33.3388 H   0  0  0  0  0  0  0  0  0  0  0  0
  -23.6670   10.9302   32.4253 H   0  0  0  0  0  0  0  0  0  0  0  0
  -24.4647   12.6519   31.3529 C   0  0  0  0  0  0  0  0  0  0  0  0
  -25.2998   12.1085   30.9081 H   0  0  0  0  0  0  0  0  0  0  0  0
  -23.6362   12.6354   30.6341 H   0  0  0  0  0  0  0  0  0  0  0  0
  1  2  2  0
  2  3  1  0
  2 21  1  0
  3  4  1  0
  3  5  1  0
  3  6  1  0
  6  7  1  0
  7  8  1  0
  7 19  2  0
  8  9  1  0
  8 10  2  0
 10 11  1  0
 10 12  1  0
 12 13  1  0
 12 17  2  0
 13 14  1  0
 13 15  1  0
 13 16  1  0
 17 18  1  0
 17 19  1  0
 19 20  1  0
 21 22  1  0
 21 37  1  0
 22 23  1  0
 22 24  1  0
 22 25  1  0
 25 26  1  0
 25 27  1  0
 25 28  1  0
 28 29  1  0
 28 30  1  0
 28 34  1  0
 30 31  1  0
 30 32  1  0
 30 33  1  0
 34 35  1  0
 34 36  1  0
 34 37  1  0
 37 38  1  0
 37 39  1  0
M  END
$$$$
