
     RDKit          3D

 27 27  0  0  0  0  0  0  0  0999 V2000
  -19.4859   12.7983   26.4270 S   0  0  0  0  0  0  0  0  0  0  0  0
  -19.3366   14.2111   26.1550 O   0  0  0  0  0  0  0  0  0  0  0  0
  -18.4084   12.0069   26.9793 O   0  0  0  0  0  0  0  0  0  0  0  0
  -19.9480   12.0632   24.9814 N   0  0  0  0  0  0  0  0  0  0  0  0
  -20.1214   12.7446   24.2387 H   0  0  0  0  0  0  0  0  0  0  0  0
  -20.7110   11.3949   25.1142 H   0  0  0  0  0  0  0  0  0  0  0  0
  -20.9194   12.5631   27.4156 C   0  0  0  0  0  0  0  0  0  0  0  0
  -22.1956   12.7454   26.8747 C   0  0  0  0  0  0  0  0  0  0  0  0
  -22.2977   12.9979   25.8475 H   0  0  0  0  0  0  0  0  0  0  0  0
  -23.3283   12.6096   27.6688 C   0  0  0  0  0  0  0  0  0  0  0  0
  -24.2892   12.7559   27.2431 H   0  0  0  0  0  0  0  0  0  0  0  0
  -23.2051   12.2932   29.0204 C   0  0  0  0  0  0  0  0  0  0  0  0
  -24.4259   12.2163   29.8951 C   0  0  0  0  0  0  0  0  0  0  0  0
  -24.3867   11.3323   30.5436 H   0  0  0  0  0  0  0  0  0  0  0  0
  -25.3364   12.1279   29.2898 H   0  0  0  0  0  0  0  0  0  0  0  0
  -24.5324   13.3988   30.7223 N   0  0  0  0  0  0  0  0  0  0  0  0
  -24.9977   14.1997   30.3312 H   0  0  0  0  0  0  0  0  0  0  0  0
  -24.0433   13.4511   31.9536 C   0  0  0  0  0  0  0  0  0  0  0  0
  -23.4723   12.5001   32.4664 O   0  0  0  0  0  0  0  0  0  0  0  0
  -24.2543   14.7539   32.6706 C   0  0  0  0  0  0  0  0  0  0  0  0
  -23.8961   15.5836   32.0545 H   0  0  0  0  0  0  0  0  0  0  0  0
  -25.3194   14.8896   32.8789 H   0  0  0  0  0  0  0  0  0  0  0  0
  -23.7008   14.7498   33.6136 H   0  0  0  0  0  0  0  0  0  0  0  0
  -21.9368   12.1203   29.5690 C   0  0  0  0  0  0  0  0  0  0  0  0
  -21.8316   11.8930   30.6003 H   0  0  0  0  0  0  0  0  0  0  0  0
  -20.8034   12.2573   28.7738 C   0  0  0  0  0  0  0  0  0  0  0  0
  -19.8396   12.1362   29.2035 H   0  0  0  0  0  0  0  0  0  0  0  0
  1  2  2  0
  1  3  2  0
  1  4  1  0
  1  7  1  0
  4  5  1  0
  4  6  1  0
  7  8  1  0
  7 26  2  0
  8  9  1  0
  8 10  2  0
 10 11  1  0
 10 12  1  0
 12 13  1  0
 12 24  2  0
 13 14  1  0
 13 15  1  0
 13 16  1  0
 16 17  1  0
 16 18  1  0
 18 19  2  0
 18 20  1  0
 20 21  1  0
 20 22  1  0
 20 23  1  0
 24 25  1  0
 24 26  1  0
 26 27  1  0
M  END
$$$$
