
     RDKit          3D

 29 30  0  0  0  0  0  0  0  0999 V2000
  -23.8700   12.3900   26.8469 F   0  0  0  0  0  0  0  0  0  0  0  0
  -23.6026   12.0968   28.1286 C   0  0  0  0  0  0  0  0  0  0  0  0
  -23.7676   13.0789   29.1079 C   0  0  0  0  0  0  0  0  0  0  0  0
  -24.2546   14.4626   28.7583 C   0  0  0  0  0  0  0  0  0  0  0  0
  -24.1598   14.6352   27.6785 H   0  0  0  0  0  0  0  0  0  0  0  0
  -23.5729   15.1885   29.2218 H   0  0  0  0  0  0  0  0  0  0  0  0
  -25.6889   14.7400   29.1959 C   0  0  0  0  0  0  0  0  0  0  0  0
  -26.3688   13.6409   29.9487 C   0  0  0  0  0  0  0  0  0  0  0  0
  -27.0836   12.8106   29.4249 O   0  0  0  0  0  0  0  0  0  0  0  0
  -26.1723   13.6069   31.2897 N   0  0  0  0  0  0  0  0  0  0  0  0
  -25.6135   14.3417   31.7004 H   0  0  0  0  0  0  0  0  0  0  0  0
  -26.7350   12.5918   32.1436 C   0  0  0  0  0  0  0  0  0  0  0  0
  -27.8245   12.6805   32.1333 H   0  0  0  0  0  0  0  0  0  0  0  0
  -26.4459   11.6043   31.7754 H   0  0  0  0  0  0  0  0  0  0  0  0
  -26.3569   12.7383   33.1584 H   0  0  0  0  0  0  0  0  0  0  0  0
  -26.5867   15.6933   28.4013 C   0  0  0  0  0  0  0  0  0  0  0  0
  -27.6564   15.5047   28.3939 H   0  0  0  0  0  0  0  0  0  0  0  0
  -26.2287   16.1444   27.4839 H   0  0  0  0  0  0  0  0  0  0  0  0
  -25.9765   16.1637   29.6782 C   0  0  0  0  0  0  0  0  0  0  0  0
  -26.6277   16.2955   30.5355 H   0  0  0  0  0  0  0  0  0  0  0  0
  -25.1908   16.9081   29.6154 H   0  0  0  0  0  0  0  0  0  0  0  0
  -23.4684   12.7417   30.4284 C   0  0  0  0  0  0  0  0  0  0  0  0
  -23.5769   13.4602   31.1997 H   0  0  0  0  0  0  0  0  0  0  0  0
  -23.0203   11.4587   30.7451 C   0  0  0  0  0  0  0  0  0  0  0  0
  -22.7956   11.2133   31.7535 H   0  0  0  0  0  0  0  0  0  0  0  0
  -22.8656   10.4951   29.7491 C   0  0  0  0  0  0  0  0  0  0  0  0
  -22.5244    9.5222   29.9989 H   0  0  0  0  0  0  0  0  0  0  0  0
  -23.1584   10.8147   28.4274 C   0  0  0  0  0  0  0  0  0  0  0  0
  -23.0464   10.0972   27.6567 H   0  0  0  0  0  0  0  0  0  0  0  0
  1  2  1  0
  2  3  1  0
  2 28  2  0
  3  4  1  0
  3 22  2  0
  4  5  1  0
  4  6  1  0
  4  7  1  0
  7  8  1  0
  7 16  1  0
  7 19  1  0
  8  9  2  0
  8 10  1  0
 10 11  1  0
 10 12  1  0
 12 13  1  0
 12 14  1  0
 12 15  1  0
 16 17  1  0
 16 18  1  0
 16 19  1  0
 19 20  1  0
 19 21  1  0
 22 23  1  0
 22 24  1  0
 24 25  1  0
 24 26  2  0
 26 27  1  0
 26 28  1  0
 28 29  1  0
M  END
$$$$
