
     RDKit          3D

 19 19  0  0  0  0  0  0  0  0999 V2000
  -21.9808   13.5950   28.6103 O   0  0  0  0  0  0  0  0  0  0  0  0
  -22.1867   12.6565   27.8543 C   0  0  0  0  0  0  0  0  0  0  0  0
  -21.2946   12.2643   26.9559 N   0  0  0  0  0  0  0  0  0  0  0  0
  -21.5001   11.4953   26.3414 H   0  0  0  0  0  0  0  0  0  0  0  0
  -20.0096   12.9153   26.8133 C   0  0  0  0  0  0  0  0  0  0  0  0
  -20.1792   13.9784   26.6108 H   0  0  0  0  0  0  0  0  0  0  0  0
  -19.4663   12.8351   27.7610 H   0  0  0  0  0  0  0  0  0  0  0  0
  -19.2612   12.2684   25.7038 C   0  0  0  0  0  0  0  0  0  0  0  0
  -18.8882   12.8318   24.5305 C   0  0  0  0  0  0  0  0  0  0  0  0
  -19.0295   13.8067   24.1399 H   0  0  0  0  0  0  0  0  0  0  0  0
  -18.2348   11.8652   23.8510 N   0  0  0  0  0  0  0  0  0  0  0  0
  -17.8153   11.9744   22.9088 H   0  0  0  0  0  0  0  0  0  0  0  0
  -18.1848   10.7003   24.5482 N   0  0  0  0  0  0  0  0  0  0  0  0
  -18.8059   10.9542   25.6671 C   0  0  0  0  0  0  0  0  0  0  0  0
  -18.9381   10.2329   26.4343 H   0  0  0  0  0  0  0  0  0  0  0  0
  -23.4809   11.8914   27.8625 C   0  0  0  0  0  0  0  0  0  0  0  0
  -23.3420   10.8749   27.4837 H   0  0  0  0  0  0  0  0  0  0  0  0
  -24.2080   12.4118   27.2346 H   0  0  0  0  0  0  0  0  0  0  0  0
  -23.8596   11.8304   28.8865 H   0  0  0  0  0  0  0  0  0  0  0  0
  1  2  2  0
  2  3  1  0
  2 16  1  0
  3  4  1  0
  3  5  1  0
  5  6  1  0
  5  7  1  0
  5  8  1  0
  8  9  2  0
  8 14  1  0
  9 10  1  0
  9 11  1  0
 11 12  1  0
 11 13  1  0
 13 14  2  0
 14 15  1  0
 16 17  1  0
 16 18  1  0
 16 19  1  0
M  END
$$$$
