
     RDKit          3D

 19 19  0  0  0  0  0  0  0  0999 V2000
  -20.6339   13.5341   28.2433 O   0  0  0  0  0  0  0  0  0  0  0  0
  -21.2128   12.6976   27.5651 C   0  0  0  0  0  0  0  0  0  0  0  0
  -20.5688   11.9034   26.7216 N   0  0  0  0  0  0  0  0  0  0  0  0
  -21.0766   11.2333   26.1701 H   0  0  0  0  0  0  0  0  0  0  0  0
  -19.1327   11.9657   26.5512 C   0  0  0  0  0  0  0  0  0  0  0  0
  -18.6639   11.9436   27.5410 H   0  0  0  0  0  0  0  0  0  0  0  0
  -18.8035   11.0768   26.0023 H   0  0  0  0  0  0  0  0  0  0  0  0
  -18.7870   13.2125   25.8193 C   0  0  0  0  0  0  0  0  0  0  0  0
  -18.8223   13.4121   24.4806 C   0  0  0  0  0  0  0  0  0  0  0  0
  -19.0861   12.7715   23.6787 H   0  0  0  0  0  0  0  0  0  0  0  0
  -18.4299   14.6899   24.2900 N   0  0  0  0  0  0  0  0  0  0  0  0
  -18.3514   15.1615   23.3696 H   0  0  0  0  0  0  0  0  0  0  0  0
  -18.1374   15.3110   25.4623 N   0  0  0  0  0  0  0  0  0  0  0  0
  -18.3580   14.4110   26.3807 C   0  0  0  0  0  0  0  0  0  0  0  0
  -18.2168   14.5923   27.4169 H   0  0  0  0  0  0  0  0  0  0  0  0
  -22.7054   12.5236   27.6110 C   0  0  0  0  0  0  0  0  0  0  0  0
  -22.9946   11.5092   27.3224 H   0  0  0  0  0  0  0  0  0  0  0  0
  -23.1699   13.2375   26.9266 H   0  0  0  0  0  0  0  0  0  0  0  0
  -23.0609   12.7085   28.6286 H   0  0  0  0  0  0  0  0  0  0  0  0
  1  2  2  0
  2  3  1  0
  2 16  1  0
  3  4  1  0
  3  5  1  0
  5  6  1  0
  5  7  1  0
  5  8  1  0
  8  9  2  0
  8 14  1  0
  9 10  1  0
  9 11  1  0
 11 12  1  0
 11 13  1  0
 13 14  2  0
 14 15  1  0
 16 17  1  0
 16 18  1  0
 16 19  1  0
M  END
$$$$
