
     RDKit          3D

 18 18  0  0  0  0  0  0  0  0999 V2000
  -20.0214   11.4694   26.3861 O   0  0  0  0  0  0  0  0  0  0  0  0
  -20.1980   12.6779   26.4428 C   0  0  0  0  0  0  0  0  0  0  0  0
  -21.1292   13.2921   27.2318 O   0  0  0  0  0  0  0  0  0  0  0  0
  -21.9347   12.4322   28.0529 C   0  0  0  0  0  0  0  0  0  0  0  0
  -21.2742   12.0084   28.8168 H   0  0  0  0  0  0  0  0  0  0  0  0
  -22.3383   11.5940   27.4741 H   0  0  0  0  0  0  0  0  0  0  0  0
  -23.0386   13.2312   28.7182 C   0  0  0  0  0  0  0  0  0  0  0  0
  -23.7128   13.6654   27.9731 H   0  0  0  0  0  0  0  0  0  0  0  0
  -22.6191   14.0649   29.2906 H   0  0  0  0  0  0  0  0  0  0  0  0
  -23.6229   12.5988   29.3925 H   0  0  0  0  0  0  0  0  0  0  0  0
  -19.4234   13.6214   25.6574 C   0  0  0  0  0  0  0  0  0  0  0  0
  -18.8340   13.4052   24.4466 C   0  0  0  0  0  0  0  0  0  0  0  0
  -18.8009   12.5493   23.8229 H   0  0  0  0  0  0  0  0  0  0  0  0
  -18.2338   14.5610   24.1180 N   0  0  0  0  0  0  0  0  0  0  0  0
  -17.6926   14.7271   23.2467 H   0  0  0  0  0  0  0  0  0  0  0  0
  -18.4113   15.5180   25.0693 N   0  0  0  0  0  0  0  0  0  0  0  0
  -19.1286   14.9436   25.9935 C   0  0  0  0  0  0  0  0  0  0  0  0
  -19.4401   15.4345   26.8812 H   0  0  0  0  0  0  0  0  0  0  0  0
  1  2  2  0
  2  3  1  0
  2 11  1  0
  3  4  1  0
  4  5  1  0
  4  6  1  0
  4  7  1  0
  7  8  1  0
  7  9  1  0
  7 10  1  0
 11 12  2  0
 11 17  1  0
 12 13  1  0
 12 14  1  0
 14 15  1  0
 14 16  1  0
 16 17  2  0
 17 18  1  0
M  END
$$$$
