
     RDKit          3D

 30 31  0  0  0  0  0  0  0  0999 V2000
  -18.8008   14.5689   25.8967 N   0  0  0  0  0  0  0  0  0  0  0  0
  -18.1794   14.5785   24.5583 C   0  0  0  0  0  0  0  0  0  0  0  0
  -18.5072   15.4378   23.9668 H   0  0  0  0  0  0  0  0  0  0  0  0
  -17.0951   14.7178   24.6539 H   0  0  0  0  0  0  0  0  0  0  0  0
  -18.4277   13.2639   23.8338 C   0  0  0  0  0  0  0  0  0  0  0  0
  -19.4935   13.0400   23.7382 H   0  0  0  0  0  0  0  0  0  0  0  0
  -17.9657   12.4282   24.3709 H   0  0  0  0  0  0  0  0  0  0  0  0
  -17.9944   13.2977   22.8288 H   0  0  0  0  0  0  0  0  0  0  0  0
  -18.3508   15.6841   26.7537 C   0  0  0  0  0  0  0  0  0  0  0  0
  -18.2989   16.6204   26.1876 H   0  0  0  0  0  0  0  0  0  0  0  0
  -19.0836   15.8722   27.5489 H   0  0  0  0  0  0  0  0  0  0  0  0
  -17.0048   15.3689   27.3912 C   0  0  0  0  0  0  0  0  0  0  0  0
  -16.2283   15.2128   26.6363 H   0  0  0  0  0  0  0  0  0  0  0  0
  -17.0610   14.4625   28.0019 H   0  0  0  0  0  0  0  0  0  0  0  0
  -16.6899   16.1949   28.0363 H   0  0  0  0  0  0  0  0  0  0  0  0
  -19.7503   13.5808   26.3395 C   0  0  0  0  0  0  0  0  0  0  0  0
  -19.5704   12.1742   26.0755 N   0  0  0  0  0  0  0  0  0  0  0  0
  -18.5743   11.5327   25.4258 N   0  0  0  0  0  0  0  0  0  0  0  0
  -18.9447   10.2917   25.5018 C   0  0  0  0  0  0  0  0  0  0  0  0
  -18.3689    9.5051   25.0791 H   0  0  0  0  0  0  0  0  0  0  0  0
  -20.0950   10.0620   26.1437 N   0  0  0  0  0  0  0  0  0  0  0  0
  -20.4884   11.2487   26.5063 C   0  0  0  0  0  0  0  0  0  0  0  0
  -21.6314   11.5917   27.2084 N   0  0  0  0  0  0  0  0  0  0  0  0
  -21.8353   12.8419   27.4688 C   0  0  0  0  0  0  0  0  0  0  0  0
  -23.0691   13.2406   28.2309 C   0  0  0  0  0  0  0  0  0  0  0  0
  -23.1204   14.3225   28.3737 H   0  0  0  0  0  0  0  0  0  0  0  0
  -23.0614   12.7537   29.2102 H   0  0  0  0  0  0  0  0  0  0  0  0
  -23.9552   12.9142   27.6781 H   0  0  0  0  0  0  0  0  0  0  0  0
  -20.8935   13.9107   27.0441 C   0  0  0  0  0  0  0  0  0  0  0  0
  -21.1097   14.9165   27.2725 H   0  0  0  0  0  0  0  0  0  0  0  0
  1  2  1  0
  1  9  1  0
  1 16  1  0
  2  3  1  0
  2  4  1  0
  2  5  1  0
  5  6  1  0
  5  7  1  0
  5  8  1  0
  9 10  1  0
  9 11  1  0
  9 12  1  0
 12 13  1  0
 12 14  1  0
 12 15  1  0
 16 17  1  0
 16 29  2  0
 17 18  1  0
 17 22  1  0
 18 19  2  0
 19 20  1  0
 19 21  1  0
 21 22  2  0
 22 23  1  0
 23 24  2  0
 24 25  1  0
 24 29  1  0
 25 26  1  0
 25 27  1  0
 25 28  1  0
 29 30  1  0
M  END
$$$$
