
     RDKit          3D

 24 24  0  0  0  0  0  0  0  0999 V2000
  -22.3446   11.2010   29.2940 O   0  0  0  0  0  0  0  0  0  0  0  0
  -22.5146   12.4059   29.1553 C   0  0  0  0  0  0  0  0  0  0  0  0
  -21.7120   13.2114   28.4081 O   0  0  0  0  0  0  0  0  0  0  0  0
  -20.5510   12.5686   27.8665 C   0  0  0  0  0  0  0  0  0  0  0  0
  -19.9052   12.2252   28.6817 H   0  0  0  0  0  0  0  0  0  0  0  0
  -20.8560   11.7153   27.2509 H   0  0  0  0  0  0  0  0  0  0  0  0
  -19.8073   13.5773   27.0134 C   0  0  0  0  0  0  0  0  0  0  0  0
  -19.5170   14.4487   27.6104 H   0  0  0  0  0  0  0  0  0  0  0  0
  -20.4487   13.9441   26.2048 H   0  0  0  0  0  0  0  0  0  0  0  0
  -18.9082   13.1326   26.5772 H   0  0  0  0  0  0  0  0  0  0  0  0
  -23.5521   13.0767   29.7495 N   0  0  0  0  0  0  0  0  0  0  0  0
  -24.5310   12.3738   30.5779 C   0  0  0  0  0  0  0  0  0  0  0  0
  -25.4697   12.3704   30.0117 H   0  0  0  0  0  0  0  0  0  0  0  0
  -24.2352   11.3343   30.7521 H   0  0  0  0  0  0  0  0  0  0  0  0
  -24.7288   13.1009   31.9080 C   0  0  0  0  0  0  0  0  0  0  0  0
  -23.8235   13.0512   32.5253 H   0  0  0  0  0  0  0  0  0  0  0  0
  -25.5458   12.6381   32.4710 H   0  0  0  0  0  0  0  0  0  0  0  0
  -25.0713   14.4776   31.6919 O   0  0  0  0  0  0  0  0  0  0  0  0
  -24.0285   15.1554   30.9747 C   0  0  0  0  0  0  0  0  0  0  0  0
  -24.3314   16.2001   30.8530 H   0  0  0  0  0  0  0  0  0  0  0  0
  -23.1127   15.1384   31.5783 H   0  0  0  0  0  0  0  0  0  0  0  0
  -23.7990   14.5132   29.6057 C   0  0  0  0  0  0  0  0  0  0  0  0
  -22.9804   15.0185   29.0860 H   0  0  0  0  0  0  0  0  0  0  0  0
  -24.7019   14.6105   28.9921 H   0  0  0  0  0  0  0  0  0  0  0  0
  1  2  2  0
  2  3  1  0
  2 11  1  0
  3  4  1  0
  4  5  1  0
  4  6  1  0
  4  7  1  0
  7  8  1  0
  7  9  1  0
  7 10  1  0
 11 12  1  0
 11 22  1  0
 12 13  1  0
 12 14  1  0
 12 15  1  0
 15 16  1  0
 15 17  1  0
 15 18  1  0
 18 19  1  0
 19 20  1  0
 19 21  1  0
 19 22  1  0
 22 23  1  0
 22 24  1  0
M  END
$$$$
