
     RDKit          3D

 24 24  0  0  0  0  0  0  0  0999 V2000
  -18.2528   14.4712   27.5347 O   0  0  0  0  0  0  0  0  0  0  0  0
  -18.2157   14.4253   26.3115 C   0  0  0  0  0  0  0  0  0  0  0  0
  -18.1379   15.5194   25.5062 O   0  0  0  0  0  0  0  0  0  0  0  0
  -17.8283   16.7440   26.1834 C   0  0  0  0  0  0  0  0  0  0  0  0
  -17.9793   17.5898   25.5041 H   0  0  0  0  0  0  0  0  0  0  0  0
  -18.4751   16.8533   27.0607 H   0  0  0  0  0  0  0  0  0  0  0  0
  -16.3771   16.6892   26.6190 C   0  0  0  0  0  0  0  0  0  0  0  0
  -15.7190   16.5550   25.7537 H   0  0  0  0  0  0  0  0  0  0  0  0
  -16.2075   15.8355   27.2841 H   0  0  0  0  0  0  0  0  0  0  0  0
  -16.0912   17.6065   27.1416 H   0  0  0  0  0  0  0  0  0  0  0  0
  -18.2476   13.2436   25.6172 N   0  0  0  0  0  0  0  0  0  0  0  0
  -18.3126   11.9593   26.3137 C   0  0  0  0  0  0  0  0  0  0  0  0
  -17.3374   11.4798   26.1700 H   0  0  0  0  0  0  0  0  0  0  0  0
  -18.4701   12.0943   27.3886 H   0  0  0  0  0  0  0  0  0  0  0  0
  -19.4154   11.0826   25.7202 C   0  0  0  0  0  0  0  0  0  0  0  0
  -20.4078   11.5053   25.9188 H   0  0  0  0  0  0  0  0  0  0  0  0
  -19.3804   10.0827   26.1649 H   0  0  0  0  0  0  0  0  0  0  0  0
  -19.2454   10.9371   24.3027 O   0  0  0  0  0  0  0  0  0  0  0  0
  -19.3036   12.2141   23.6490 C   0  0  0  0  0  0  0  0  0  0  0  0
  -19.1867   12.0445   22.5740 H   0  0  0  0  0  0  0  0  0  0  0  0
  -20.2949   12.6536   23.8148 H   0  0  0  0  0  0  0  0  0  0  0  0
  -18.1974   13.1400   24.1572 C   0  0  0  0  0  0  0  0  0  0  0  0
  -18.2753   14.1184   23.6752 H   0  0  0  0  0  0  0  0  0  0  0  0
  -17.2160   12.7182   23.9119 H   0  0  0  0  0  0  0  0  0  0  0  0
  1  2  2  0
  2  3  1  0
  2 11  1  0
  3  4  1  0
  4  5  1  0
  4  6  1  0
  4  7  1  0
  7  8  1  0
  7  9  1  0
  7 10  1  0
 11 12  1  0
 11 22  1  0
 12 13  1  0
 12 14  1  0
 12 15  1  0
 15 16  1  0
 15 17  1  0
 15 18  1  0
 18 19  1  0
 19 20  1  0
 19 21  1  0
 19 22  1  0
 22 23  1  0
 22 24  1  0
M  END
$$$$
