
     RDKit          3D

 29 30  0  0  0  0  0  0  0  0999 V2000
  -26.4630   14.8152   29.6501 F   0  0  0  0  0  0  0  0  0  0  0  0
  -25.4477   14.1711   29.0546 C   0  0  0  0  0  0  0  0  0  0  0  0
  -24.3209   13.8225   29.8027 C   0  0  0  0  0  0  0  0  0  0  0  0
  -24.2248   14.1422   31.2732 C   0  0  0  0  0  0  0  0  0  0  0  0
  -23.5336   13.4471   31.7670 H   0  0  0  0  0  0  0  0  0  0  0  0
  -25.2036   13.9391   31.7284 H   0  0  0  0  0  0  0  0  0  0  0  0
  -23.8007   15.5777   31.5654 C   0  0  0  0  0  0  0  0  0  0  0  0
  -23.9963   16.5582   30.4530 C   0  0  0  0  0  0  0  0  0  0  0  0
  -23.1007   16.9342   29.7241 O   0  0  0  0  0  0  0  0  0  0  0  0
  -25.2485   17.0504   30.2860 N   0  0  0  0  0  0  0  0  0  0  0  0
  -25.9592   16.7558   30.9408 H   0  0  0  0  0  0  0  0  0  0  0  0
  -25.5981   17.9777   29.2399 C   0  0  0  0  0  0  0  0  0  0  0  0
  -25.0660   18.9183   29.4043 H   0  0  0  0  0  0  0  0  0  0  0  0
  -25.3109   17.5604   28.2716 H   0  0  0  0  0  0  0  0  0  0  0  0
  -26.6772   18.1480   29.2688 H   0  0  0  0  0  0  0  0  0  0  0  0
  -22.6847   15.8828   32.5691 C   0  0  0  0  0  0  0  0  0  0  0  0
  -22.0739   16.7660   32.4050 H   0  0  0  0  0  0  0  0  0  0  0  0
  -22.1441   15.0756   33.0478 H   0  0  0  0  0  0  0  0  0  0  0  0
  -24.1047   16.0901   32.9750 C   0  0  0  0  0  0  0  0  0  0  0  0
  -24.4585   17.1092   33.0876 H   0  0  0  0  0  0  0  0  0  0  0  0
  -24.5242   15.4054   33.7035 H   0  0  0  0  0  0  0  0  0  0  0  0
  -23.2796   13.1644   29.1473 C   0  0  0  0  0  0  0  0  0  0  0  0
  -22.4061   12.8866   29.6793 H   0  0  0  0  0  0  0  0  0  0  0  0
  -23.3761   12.8697   27.7868 C   0  0  0  0  0  0  0  0  0  0  0  0
  -22.5774   12.3686   27.2986 H   0  0  0  0  0  0  0  0  0  0  0  0
  -24.5128   13.2268   27.0624 C   0  0  0  0  0  0  0  0  0  0  0  0
  -24.5778   12.9988   26.0284 H   0  0  0  0  0  0  0  0  0  0  0  0
  -25.5598   13.8843   27.6998 C   0  0  0  0  0  0  0  0  0  0  0  0
  -26.4309   14.1645   27.1669 H   0  0  0  0  0  0  0  0  0  0  0  0
  1  2  1  0
  2  3  1  0
  2 28  2  0
  3  4  1  0
  3 22  2  0
  4  5  1  0
  4  6  1  0
  4  7  1  0
  7  8  1  0
  7 16  1  0
  7 19  1  0
  8  9  2  0
  8 10  1  0
 10 11  1  0
 10 12  1  0
 12 13  1  0
 12 14  1  0
 12 15  1  0
 16 17  1  0
 16 18  1  0
 16 19  1  0
 19 20  1  0
 19 21  1  0
 22 23  1  0
 22 24  1  0
 24 25  1  0
 24 26  2  0
 26 27  1  0
 26 28  1  0
 28 29  1  0
M  END
$$$$
