
     RDKit          3D

 19 19  0  0  0  0  0  0  0  0999 V2000
  -22.5722   11.4290   30.8666 O   0  0  0  0  0  0  0  0  0  0  0  0
  -23.4396   11.9862   30.1977 C   0  0  0  0  0  0  0  0  0  0  0  0
  -24.6004   12.3645   30.8698 N   0  0  0  0  0  0  0  0  0  0  0  0
  -24.8798   11.8272   32.1945 C   0  0  0  0  0  0  0  0  0  0  0  0
  -25.9087   11.4535   32.2140 H   0  0  0  0  0  0  0  0  0  0  0  0
  -24.7698   12.6316   32.9274 H   0  0  0  0  0  0  0  0  0  0  0  0
  -24.2087   11.0074   32.4616 H   0  0  0  0  0  0  0  0  0  0  0  0
  -25.5822   13.3100   30.3552 C   0  0  0  0  0  0  0  0  0  0  0  0
  -25.9026   13.9714   31.1667 H   0  0  0  0  0  0  0  0  0  0  0  0
  -26.4454   12.7501   29.9841 H   0  0  0  0  0  0  0  0  0  0  0  0
  -25.1680   13.9327   29.5597 H   0  0  0  0  0  0  0  0  0  0  0  0
  -23.2746   12.2494   28.7798 C   0  0  0  0  0  0  0  0  0  0  0  0
  -22.0791   12.5197   28.1836 C   0  0  0  0  0  0  0  0  0  0  0  0
  -21.1036   12.6135   28.5850 H   0  0  0  0  0  0  0  0  0  0  0  0
  -22.3403   12.6591   26.8730 N   0  0  0  0  0  0  0  0  0  0  0  0
  -21.6320   12.8718   26.1450 H   0  0  0  0  0  0  0  0  0  0  0  0
  -23.6602   12.4820   26.5925 N   0  0  0  0  0  0  0  0  0  0  0  0
  -24.2120   12.2270   27.7447 C   0  0  0  0  0  0  0  0  0  0  0  0
  -25.2480   12.0230   27.8552 H   0  0  0  0  0  0  0  0  0  0  0  0
  1  2  2  0
  2  3  1  0
  2 12  1  0
  3  4  1  0
  3  8  1  0
  4  5  1  0
  4  6  1  0
  4  7  1  0
  8  9  1  0
  8 10  1  0
  8 11  1  0
 12 13  2  0
 12 18  1  0
 13 14  1  0
 13 15  1  0
 15 16  1  0
 15 17  1  0
 17 18  2  0
 18 19  1  0
M  END
$$$$
