
     RDKit          3D

 21 21  0  0  0  0  0  0  0  0999 V2000
  -27.0885   15.4646   29.7139 Br  0  0  0  0  0  0  0  0  0  0  0  0
  -25.7411   14.2175   29.2555 C   0  0  0  0  0  0  0  0  0  0  0  0
  -24.8968   13.7108   30.2375 C   0  0  0  0  0  0  0  0  0  0  0  0
  -24.9955   14.0162   31.2443 H   0  0  0  0  0  0  0  0  0  0  0  0
  -23.9076   12.7969   29.8866 C   0  0  0  0  0  0  0  0  0  0  0  0
  -23.0886   12.3444   30.8880 O   0  0  0  0  0  0  0  0  0  0  0  0
  -23.6105   11.2962   31.7401 C   0  0  0  0  0  0  0  0  0  0  0  0
  -22.9345   11.1786   32.5854 H   0  0  0  0  0  0  0  0  0  0  0  0
  -23.6672   10.3790   31.1557 H   0  0  0  0  0  0  0  0  0  0  0  0
  -24.6029   11.5819   32.0873 H   0  0  0  0  0  0  0  0  0  0  0  0
  -23.7525   12.3601   28.5637 C   0  0  0  0  0  0  0  0  0  0  0  0
  -22.7034   11.3280   28.1488 C   0  0  0  0  0  0  0  0  0  0  0  0
  -23.0789   10.7652   27.3084 H   0  0  0  0  0  0  0  0  0  0  0  0
  -22.4293   10.6930   28.9747 H   0  0  0  0  0  0  0  0  0  0  0  0
  -21.4586   12.0520   27.6877 C   0  0  0  0  0  0  0  0  0  0  0  0
  -21.2201   13.1702   28.1976 O   0  0  0  0  0  0  0  0  0  0  0  0
  -20.7697   11.5178   26.7901 O   0  0  0  0  0  0  0  0  0  0  0  0
  -24.6032   12.8847   27.5920 C   0  0  0  0  0  0  0  0  0  0  0  0
  -24.4871   12.5814   26.5806 H   0  0  0  0  0  0  0  0  0  0  0  0
  -25.5906   13.8064   27.9320 C   0  0  0  0  0  0  0  0  0  0  0  0
  -26.2253   14.1976   27.1804 H   0  0  0  0  0  0  0  0  0  0  0  0
  1  2  1  0
  2  3  1  0
  2 20  2  0
  3  4  1  0
  3  5  2  0
  5  6  1  0
  5 11  1  0
  6  7  1  0
  7  8  1  0
  7  9  1  0
  7 10  1  0
 11 12  1  0
 11 18  2  0
 12 13  1  0
 12 14  1  0
 12 15  1  0
 15 16  1  0
 15 17  2  0
 18 19  1  0
 18 20  1  0
 20 21  1  0
M  END
$$$$
