
     RDKit          3D

 30 31  0  0  0  0  0  0  0  0999 V2000
  -22.1521   12.9726   28.4047 N   0  0  0  0  0  0  0  0  0  0  0  0
  -23.4449   13.6574   28.2114 C   0  0  0  0  0  0  0  0  0  0  0  0
  -23.5615   14.0185   27.1859 H   0  0  0  0  0  0  0  0  0  0  0  0
  -24.2665   12.9409   28.3375 H   0  0  0  0  0  0  0  0  0  0  0  0
  -23.6269   14.7733   29.2293 C   0  0  0  0  0  0  0  0  0  0  0  0
  -22.8173   15.5067   29.1873 H   0  0  0  0  0  0  0  0  0  0  0  0
  -23.6514   14.3725   30.2486 H   0  0  0  0  0  0  0  0  0  0  0  0
  -24.5718   15.2973   29.0518 H   0  0  0  0  0  0  0  0  0  0  0  0
  -22.1545   12.0403   29.5499 C   0  0  0  0  0  0  0  0  0  0  0  0
  -21.1353   11.8402   29.8977 H   0  0  0  0  0  0  0  0  0  0  0  0
  -22.6646   12.4947   30.4090 H   0  0  0  0  0  0  0  0  0  0  0  0
  -22.8618   10.7412   29.1899 C   0  0  0  0  0  0  0  0  0  0  0  0
  -22.3644   10.2281   28.3614 H   0  0  0  0  0  0  0  0  0  0  0  0
  -23.8982   10.9270   28.8912 H   0  0  0  0  0  0  0  0  0  0  0  0
  -22.8717   10.0656   30.0508 H   0  0  0  0  0  0  0  0  0  0  0  0
  -20.9955   13.1800   27.5721 C   0  0  0  0  0  0  0  0  0  0  0  0
  -20.4630   12.1380   26.7288 N   0  0  0  0  0  0  0  0  0  0  0  0
  -20.8859   10.8678   26.5452 N   0  0  0  0  0  0  0  0  0  0  0  0
  -20.0312   10.4103   25.6830 C   0  0  0  0  0  0  0  0  0  0  0  0
  -20.0795    9.4144   25.3158 H   0  0  0  0  0  0  0  0  0  0  0  0
  -19.0854   11.2675   25.2846 N   0  0  0  0  0  0  0  0  0  0  0  0
  -19.3586   12.3567   25.9429 C   0  0  0  0  0  0  0  0  0  0  0  0
  -18.6882   13.5675   25.9059 N   0  0  0  0  0  0  0  0  0  0  0  0
  -19.1296   14.5321   26.6456 C   0  0  0  0  0  0  0  0  0  0  0  0
  -18.4195   15.8578   26.6229 C   0  0  0  0  0  0  0  0  0  0  0  0
  -18.8903   16.5767   27.2974 H   0  0  0  0  0  0  0  0  0  0  0  0
  -18.4390   16.2602   25.6061 H   0  0  0  0  0  0  0  0  0  0  0  0
  -17.3788   15.7143   26.9290 H   0  0  0  0  0  0  0  0  0  0  0  0
  -20.3197   14.3854   27.5242 C   0  0  0  0  0  0  0  0  0  0  0  0
  -20.6341   15.1990   28.1156 H   0  0  0  0  0  0  0  0  0  0  0  0
  1  2  1  0
  1  9  1  0
  1 16  1  0
  2  3  1  0
  2  4  1  0
  2  5  1  0
  5  6  1  0
  5  7  1  0
  5  8  1  0
  9 10  1  0
  9 11  1  0
  9 12  1  0
 12 13  1  0
 12 14  1  0
 12 15  1  0
 16 17  1  0
 16 29  2  0
 17 18  1  0
 17 22  1  0
 18 19  2  0
 19 20  1  0
 19 21  1  0
 21 22  2  0
 22 23  1  0
 23 24  2  0
 24 25  1  0
 24 29  1  0
 25 26  1  0
 25 27  1  0
 25 28  1  0
 29 30  1  0
M  END
$$$$
