
     RDKit          3D

 18 18  0  0  0  0  0  0  0  0999 V2000
  -22.3233   11.2829   27.3385 O   0  0  0  0  0  0  0  0  0  0  0  0
  -21.7951   12.3658   27.5443 C   0  0  0  0  0  0  0  0  0  0  0  0
  -22.2743   13.1491   28.5469 N   0  0  0  0  0  0  0  0  0  0  0  0
  -21.7758   14.0188   28.7627 H   0  0  0  0  0  0  0  0  0  0  0  0
  -23.4342   12.7896   29.3383 C   0  0  0  0  0  0  0  0  0  0  0  0
  -23.7689   13.6773   29.8865 H   0  0  0  0  0  0  0  0  0  0  0  0
  -24.2337   12.4973   28.6493 H   0  0  0  0  0  0  0  0  0  0  0  0
  -23.1276   11.6597   30.3013 C   0  0  0  0  0  0  0  0  0  0  0  0
  -22.3284   11.9427   30.9944 H   0  0  0  0  0  0  0  0  0  0  0  0
  -22.8009   10.7637   29.7630 H   0  0  0  0  0  0  0  0  0  0  0  0
  -24.0159   11.4038   30.8865 H   0  0  0  0  0  0  0  0  0  0  0  0
  -20.6709   12.8467   26.7956 C   0  0  0  0  0  0  0  0  0  0  0  0
  -20.2906   12.2803   25.6512 N   0  0  0  0  0  0  0  0  0  0  0  0
  -20.7512   11.4637   25.2030 H   0  0  0  0  0  0  0  0  0  0  0  0
  -19.2231   12.9045   25.1443 N   0  0  0  0  0  0  0  0  0  0  0  0
  -18.9092   13.8864   25.9655 N   0  0  0  0  0  0  0  0  0  0  0  0
  -19.7907   13.8579   26.9763 C   0  0  0  0  0  0  0  0  0  0  0  0
  -19.7735   14.5431   27.7849 H   0  0  0  0  0  0  0  0  0  0  0  0
  1  2  2  0
  2  3  1  0
  2 12  1  0
  3  4  1  0
  3  5  1  0
  5  6  1  0
  5  7  1  0
  5  8  1  0
  8  9  1  0
  8 10  1  0
  8 11  1  0
 12 13  1  0
 12 17  2  0
 13 14  1  0
 13 15  1  0
 15 16  2  0
 16 17  1  0
 17 18  1  0
M  END
$$$$
