
     RDKit          3D

 25 26  0  0  0  0  0  0  0  0999 V2000
  -20.9675   11.4257   26.8678 O   0  0  0  0  0  0  0  0  0  0  0  0
  -21.3364   12.2599   27.6918 C   0  0  0  0  0  0  0  0  0  0  0  0
  -20.7981   13.5231   27.6539 N   0  0  0  0  0  0  0  0  0  0  0  0
  -21.1660   14.1530   28.3805 H   0  0  0  0  0  0  0  0  0  0  0  0
  -19.8489   14.0113   26.7739 C   0  0  0  0  0  0  0  0  0  0  0  0
  -19.4951   13.3387   25.6598 C   0  0  0  0  0  0  0  0  0  0  0  0
  -19.8160   12.4146   25.2588 H   0  0  0  0  0  0  0  0  0  0  0  0
  -18.5590   14.1197   25.0661 N   0  0  0  0  0  0  0  0  0  0  0  0
  -17.8473   13.8699   23.8393 C   0  0  0  0  0  0  0  0  0  0  0  0
  -18.1580   12.9069   23.4272 H   0  0  0  0  0  0  0  0  0  0  0  0
  -16.7766   13.8544   24.0579 H   0  0  0  0  0  0  0  0  0  0  0  0
  -18.0834   14.6710   23.1344 H   0  0  0  0  0  0  0  0  0  0  0  0
  -18.3133   15.2575   25.7689 N   0  0  0  0  0  0  0  0  0  0  0  0
  -19.1031   15.1889   26.8113 C   0  0  0  0  0  0  0  0  0  0  0  0
  -19.1505   15.9345   27.5622 H   0  0  0  0  0  0  0  0  0  0  0  0
  -22.3189   12.0202   28.7295 C   0  0  0  0  0  0  0  0  0  0  0  0
  -22.6936   10.8135   29.0740 N   0  0  0  0  0  0  0  0  0  0  0  0
  -23.5963   10.9433   30.0420 O   0  0  0  0  0  0  0  0  0  0  0  0
  -23.8035   12.2343   30.3206 C   0  0  0  0  0  0  0  0  0  0  0  0
  -24.7807   12.5452   31.3756 C   0  0  0  0  0  0  0  0  0  0  0  0
  -24.8783   13.6260   31.5156 H   0  0  0  0  0  0  0  0  0  0  0  0
  -24.4694   12.1052   32.3278 H   0  0  0  0  0  0  0  0  0  0  0  0
  -25.7657   12.1454   31.1174 H   0  0  0  0  0  0  0  0  0  0  0  0
  -23.0130   12.9479   29.5086 C   0  0  0  0  0  0  0  0  0  0  0  0
  -22.9281   14.0026   29.4648 H   0  0  0  0  0  0  0  0  0  0  0  0
  1  2  2  0
  2  3  1  0
  2 16  1  0
  3  4  1  0
  3  5  1  0
  5  6  2  0
  5 14  1  0
  6  7  1  0
  6  8  1  0
  8  9  1  0
  8 13  1  0
  9 10  1  0
  9 11  1  0
  9 12  1  0
 13 14  2  0
 14 15  1  0
 16 17  2  0
 16 24  1  0
 17 18  1  0
 18 19  1  0
 19 20  1  0
 19 24  2  0
 20 21  1  0
 20 22  1  0
 20 23  1  0
 24 25  1  0
M  END
$$$$
