
     RDKit          3D

 22 22  0  0  0  0  0  0  0  0999 V2000
  -13.4293   18.5911   26.8576 O   0  0  0  0  0  0  0  0  0  0  0  0
  -12.5948   18.1198   26.6902 H   0  0  0  0  0  0  0  0  0  0  0  0
  -14.4849   17.7272   26.4455 C   0  0  0  0  0  0  0  0  0  0  0  0
  -14.4426   17.6113   25.3571 H   0  0  0  0  0  0  0  0  0  0  0  0
  -14.3142   16.7517   26.9119 H   0  0  0  0  0  0  0  0  0  0  0  0
  -15.8304   18.2892   26.9003 C   0  0  0  0  0  0  0  0  0  0  0  0
  -15.7527   18.5827   27.9544 H   0  0  0  0  0  0  0  0  0  0  0  0
  -16.0725   19.1930   26.3263 H   0  0  0  0  0  0  0  0  0  0  0  0
  -16.9509   17.3089   26.7504 C   0  0  0  0  0  0  0  0  0  0  0  0
  -16.8992   16.0916   26.1642 C   0  0  0  0  0  0  0  0  0  0  0  0
  -16.1068   15.5710   25.6939 H   0  0  0  0  0  0  0  0  0  0  0  0
  -18.1425   15.5739   26.2719 N   0  0  0  0  0  0  0  0  0  0  0  0
  -18.6143   14.2877   25.8069 C   0  0  0  0  0  0  0  0  0  0  0  0
  -18.0476   13.5132   26.3348 H   0  0  0  0  0  0  0  0  0  0  0  0
  -19.6658   14.1936   26.0991 H   0  0  0  0  0  0  0  0  0  0  0  0
  -18.4551   14.1280   24.3055 C   0  0  0  0  0  0  0  0  0  0  0  0
  -17.4039   14.2190   24.0084 H   0  0  0  0  0  0  0  0  0  0  0  0
  -19.0215   14.8926   23.7632 H   0  0  0  0  0  0  0  0  0  0  0  0
  -18.8160   13.1451   23.9874 H   0  0  0  0  0  0  0  0  0  0  0  0
  -18.9894   16.4235   26.9047 N   0  0  0  0  0  0  0  0  0  0  0  0
  -18.2613   17.4681   27.1929 C   0  0  0  0  0  0  0  0  0  0  0  0
  -18.6382   18.3240   27.6972 H   0  0  0  0  0  0  0  0  0  0  0  0
  1  2  1  0
  1  3  1  0
  3  4  1  0
  3  5  1  0
  3  6  1  0
  6  7  1  0
  6  8  1  0
  6  9  1  0
  9 10  2  0
  9 21  1  0
 10 11  1  0
 10 12  1  0
 12 13  1  0
 12 20  1  0
 13 14  1  0
 13 15  1  0
 13 16  1  0
 16 17  1  0
 16 18  1  0
 16 19  1  0
 20 21  2  0
 21 22  1  0
M  END
$$$$
