
     RDKit          3D

 14 14  0  0  0  0  0  0  0  0999 V2000
  -19.4899   15.5232   27.2917 O   0  0  0  0  0  0  0  0  0  0  0  0
  -18.9475   15.2176   26.1937 C   0  0  0  0  0  0  0  0  0  0  0  0
  -18.3394   16.1060   25.5265 O   0  0  0  0  0  0  0  0  0  0  0  0
  -19.0204   13.8483   25.7002 C   0  0  0  0  0  0  0  0  0  0  0  0
  -19.6282   12.7651   26.3131 C   0  0  0  0  0  0  0  0  0  0  0  0
  -20.3408   12.8150   27.6331 C   0  0  0  0  0  0  0  0  0  0  0  0
  -20.7339   11.8309   27.9082 H   0  0  0  0  0  0  0  0  0  0  0  0
  -21.1883   13.5063   27.5891 H   0  0  0  0  0  0  0  0  0  0  0  0
  -19.6571   13.1283   28.4292 H   0  0  0  0  0  0  0  0  0  0  0  0
  -19.5194   11.5788   25.5696 C   0  0  0  0  0  0  0  0  0  0  0  0
  -19.9253   10.6517   25.8815 H   0  0  0  0  0  0  0  0  0  0  0  0
  -18.8361   11.7404   24.3997 C   0  0  0  0  0  0  0  0  0  0  0  0
  -18.6216   11.0024   23.6708 H   0  0  0  0  0  0  0  0  0  0  0  0
  -18.3091   13.3648   24.1862 S   0  0  0  0  0  0  0  0  0  0  0  0
  1  2  1  0
  2  3  2  0
  2  4  1  0
  4  5  2  0
  4 14  1  0
  5  6  1  0
  5 10  1  0
  6  7  1  0
  6  8  1  0
  6  9  1  0
 10 11  1  0
 10 12  2  0
 12 13  1  0
 12 14  1  0
M  END
$$$$
