
     RDKit          3D

 29 30  0  0  0  0  0  0  0  0999 V2000
  -16.2721   13.9998   25.3861 O   0  0  0  0  0  0  0  0  0  0  0  0
  -17.2630   14.5722   25.8093 C   0  0  0  0  0  0  0  0  0  0  0  0
  -17.1995   15.8733   26.1001 N   0  0  0  0  0  0  0  0  0  0  0  0
  -17.4869   16.4941   25.3355 H   0  0  0  0  0  0  0  0  0  0  0  0
  -17.4363   16.1352   27.0602 H   0  0  0  0  0  0  0  0  0  0  0  0
  -18.4749   13.9622   26.0004 N   0  0  0  0  0  0  0  0  0  0  0  0
  -18.6763   12.6053   25.4843 C   0  0  0  0  0  0  0  0  0  0  0  0
  -17.7673   12.2156   25.0145 H   0  0  0  0  0  0  0  0  0  0  0  0
  -19.4459   12.6711   24.7057 H   0  0  0  0  0  0  0  0  0  0  0  0
  -19.1329   11.6591   26.5946 C   0  0  0  0  0  0  0  0  0  0  0  0
  -18.3437   11.5608   27.3497 H   0  0  0  0  0  0  0  0  0  0  0  0
  -19.3122   10.6621   26.1828 H   0  0  0  0  0  0  0  0  0  0  0  0
  -20.3159   12.1826   27.2943 N   0  0  0  0  0  0  0  0  0  0  0  0
  -21.4456   11.3860   27.4532 C   0  0  0  0  0  0  0  0  0  0  0  0
  -21.5122   10.3827   26.7423 O   0  0  0  0  0  0  0  0  0  0  0  0
  -22.4841   11.7280   28.3995 C   0  0  0  0  0  0  0  0  0  0  0  0
  -22.1774   12.0235   29.6986 O   0  0  0  0  0  0  0  0  0  0  0  0
  -23.3334   12.2462   30.3620 C   0  0  0  0  0  0  0  0  0  0  0  0
  -23.3190   12.5046   31.3899 H   0  0  0  0  0  0  0  0  0  0  0  0
  -24.3794   12.0822   29.5197 C   0  0  0  0  0  0  0  0  0  0  0  0
  -25.4032   12.1907   29.7671 H   0  0  0  0  0  0  0  0  0  0  0  0
  -23.8407   11.7329   28.2583 C   0  0  0  0  0  0  0  0  0  0  0  0
  -24.3668   11.5137   27.3642 H   0  0  0  0  0  0  0  0  0  0  0  0
  -20.1710   13.5597   27.7862 C   0  0  0  0  0  0  0  0  0  0  0  0
  -21.1208   13.9631   28.1417 H   0  0  0  0  0  0  0  0  0  0  0  0
  -19.4704   13.5236   28.6283 H   0  0  0  0  0  0  0  0  0  0  0  0
  -19.6434   14.5151   26.6998 C   0  0  0  0  0  0  0  0  0  0  0  0
  -19.4234   15.4779   27.1661 H   0  0  0  0  0  0  0  0  0  0  0  0
  -20.4160   14.6773   25.9385 H   0  0  0  0  0  0  0  0  0  0  0  0
  1  2  2  0
  2  3  1  0
  2  6  1  0
  3  4  1  0
  3  5  1  0
  6  7  1  0
  6 27  1  0
  7  8  1  0
  7  9  1  0
  7 10  1  0
 10 11  1  0
 10 12  1  0
 10 13  1  0
 13 14  1  0
 13 24  1  0
 14 15  2  0
 14 16  1  0
 16 17  1  0
 16 22  2  0
 17 18  1  0
 18 19  1  0
 18 20  2  0
 20 21  1  0
 20 22  1  0
 22 23  1  0
 24 25  1  0
 24 26  1  0
 24 27  1  0
 27 28  1  0
 27 29  1  0
M  END
$$$$
