
     RDKit          3D

 29 30  0  0  0  0  0  0  0  0999 V2000
  -26.4973   14.7746   27.9512 C   0  0  0  0  0  0  0  0  0  0  0  0
  -26.1130   15.7814   27.7598 H   0  0  0  0  0  0  0  0  0  0  0  0
  -27.5543   14.8530   28.2295 H   0  0  0  0  0  0  0  0  0  0  0  0
  -26.4601   14.2079   27.0143 H   0  0  0  0  0  0  0  0  0  0  0  0
  -25.7057   14.0716   29.0493 C   0  0  0  0  0  0  0  0  0  0  0  0
  -26.2739   12.7794   29.2648 O   0  0  0  0  0  0  0  0  0  0  0  0
  -26.1657   12.2750   28.4405 H   0  0  0  0  0  0  0  0  0  0  0  0
  -24.2528   13.9694   28.7126 C   0  0  0  0  0  0  0  0  0  0  0  0
  -23.1888   14.4878   29.4416 C   0  0  0  0  0  0  0  0  0  0  0  0
  -23.2759   15.0409   30.3435 H   0  0  0  0  0  0  0  0  0  0  0  0
  -22.0454   14.2094   28.8758 N   0  0  0  0  0  0  0  0  0  0  0  0
  -22.3677   13.5020   27.7562 N   0  0  0  0  0  0  0  0  0  0  0  0
  -21.3457   13.0182   26.8605 C   0  0  0  0  0  0  0  0  0  0  0  0
  -21.8046   12.9186   25.8665 H   0  0  0  0  0  0  0  0  0  0  0  0
  -20.1186   13.9216   26.7496 C   0  0  0  0  0  0  0  0  0  0  0  0
  -20.3143   14.8175   26.1514 H   0  0  0  0  0  0  0  0  0  0  0  0
  -19.7737   14.2544   27.7358 H   0  0  0  0  0  0  0  0  0  0  0  0
  -19.0576   13.0282   26.1137 C   0  0  0  0  0  0  0  0  0  0  0  0
  -19.0375   13.1734   25.0273 H   0  0  0  0  0  0  0  0  0  0  0  0
  -18.0586   13.2667   26.4936 H   0  0  0  0  0  0  0  0  0  0  0  0
  -19.4597   11.5884   26.4352 C   0  0  0  0  0  0  0  0  0  0  0  0
  -18.6698   11.0561   26.9762 H   0  0  0  0  0  0  0  0  0  0  0  0
  -19.6460   11.0394   25.5042 H   0  0  0  0  0  0  0  0  0  0  0  0
  -20.7379   11.6759   27.2621 C   0  0  0  0  0  0  0  0  0  0  0  0
  -20.4884   11.6529   28.3305 H   0  0  0  0  0  0  0  0  0  0  0  0
  -21.4137   10.8366   27.0658 H   0  0  0  0  0  0  0  0  0  0  0  0
  -23.7060   13.3458   27.6431 C   0  0  0  0  0  0  0  0  0  0  0  0
  -24.1461   12.8163   26.8387 H   0  0  0  0  0  0  0  0  0  0  0  0
  -25.8166   14.6296   29.9878 H   0  0  0  0  0  0  0  0  0  0  0  0
  1  2  1  0
  1  3  1  0
  1  4  1  0
  1  5  1  0
  5  6  1  0
  5  8  1  0
  5 29  1  0
  6  7  1  0
  8  9  1  0
  8 27  2  0
  9 10  1  0
  9 11  2  0
 11 12  1  0
 12 13  1  0
 12 27  1  0
 13 14  1  0
 13 15  1  0
 13 24  1  0
 15 16  1  0
 15 17  1  0
 15 18  1  0
 18 19  1  0
 18 20  1  0
 18 21  1  0
 21 22  1  0
 21 23  1  0
 21 24  1  0
 24 25  1  0
 24 26  1  0
 27 28  1  0
M  END
$$$$
