
     RDKit          3D

 16 17  0  0  0  0  0  0  0  0999 V2000
  -21.7264   11.8805   27.6352 Br  0  0  0  0  0  0  0  0  0  0  0  0
  -20.2003   12.0000   26.5176 C   0  0  0  0  0  0  0  0  0  0  0  0
  -19.4212   13.1821   26.3881 C   0  0  0  0  0  0  0  0  0  0  0  0
  -18.3045   13.1382   25.5187 C   0  0  0  0  0  0  0  0  0  0  0  0
  -17.9786   12.0084   24.8271 N   0  0  0  0  0  0  0  0  0  0  0  0
  -18.7025   10.9340   24.9570 C   0  0  0  0  0  0  0  0  0  0  0  0
  -18.4240   10.0688   24.4062 H   0  0  0  0  0  0  0  0  0  0  0  0
  -19.8301   10.8910   25.7991 C   0  0  0  0  0  0  0  0  0  0  0  0
  -20.3867    9.9919   25.8704 H   0  0  0  0  0  0  0  0  0  0  0  0
  -17.5007   14.2247   25.3325 N   0  0  0  0  0  0  0  0  0  0  0  0
  -17.7539   15.3376   25.9632 C   0  0  0  0  0  0  0  0  0  0  0  0
  -17.1108   16.1671   25.7983 H   0  0  0  0  0  0  0  0  0  0  0  0
  -18.8464   15.4655   26.8472 C   0  0  0  0  0  0  0  0  0  0  0  0
  -19.0090   16.3915   27.3362 H   0  0  0  0  0  0  0  0  0  0  0  0
  -19.6825   14.4006   27.0667 C   0  0  0  0  0  0  0  0  0  0  0  0
  -20.5035   14.4943   27.7297 H   0  0  0  0  0  0  0  0  0  0  0  0
  1  2  1  0
  2  3  1  0
  2  8  2  0
  3  4  1  0
  3 15  2  0
  4  5  1  0
  4 10  2  0
  5  6  2  0
  6  7  1  0
  6  8  1  0
  8  9  1  0
 10 11  1  0
 11 12  1  0
 11 13  2  0
 13 14  1  0
 13 15  1  0
 15 16  1  0
M  END
$$$$
