
     RDKit          3D

 29 30  0  0  0  0  0  0  0  0999 V2000
  -25.8783   13.8551   26.8897 F   0  0  0  0  0  0  0  0  0  0  0  0
  -24.8706   13.1905   27.4754 C   0  0  0  0  0  0  0  0  0  0  0  0
  -24.1806   13.7823   28.5358 C   0  0  0  0  0  0  0  0  0  0  0  0
  -24.5528   15.1506   29.0488 C   0  0  0  0  0  0  0  0  0  0  0  0
  -25.0308   15.7358   28.2527 H   0  0  0  0  0  0  0  0  0  0  0  0
  -23.6240   15.6903   29.2780 H   0  0  0  0  0  0  0  0  0  0  0  0
  -25.4575   15.1235   30.2763 C   0  0  0  0  0  0  0  0  0  0  0  0
  -24.9962   14.2663   31.4117 C   0  0  0  0  0  0  0  0  0  0  0  0
  -24.5038   14.7085   32.4300 O   0  0  0  0  0  0  0  0  0  0  0  0
  -25.1308   12.9260   31.2589 N   0  0  0  0  0  0  0  0  0  0  0  0
  -25.4971   12.5889   30.3797 H   0  0  0  0  0  0  0  0  0  0  0  0
  -24.7607   11.9752   32.2765 C   0  0  0  0  0  0  0  0  0  0  0  0
  -23.6796   12.0211   32.4315 H   0  0  0  0  0  0  0  0  0  0  0  0
  -25.2738   12.2213   33.2094 H   0  0  0  0  0  0  0  0  0  0  0  0
  -25.0490   10.9751   31.9432 H   0  0  0  0  0  0  0  0  0  0  0  0
  -26.9667   15.3525   30.1502 C   0  0  0  0  0  0  0  0  0  0  0  0
  -27.6222   14.8574   30.8609 H   0  0  0  0  0  0  0  0  0  0  0  0
  -27.4201   15.4853   29.1756 H   0  0  0  0  0  0  0  0  0  0  0  0
  -26.1035   16.4570   30.6593 C   0  0  0  0  0  0  0  0  0  0  0  0
  -26.1718   16.7131   31.7110 H   0  0  0  0  0  0  0  0  0  0  0  0
  -25.9553   17.3164   30.0152 H   0  0  0  0  0  0  0  0  0  0  0  0
  -23.1306   13.0668   29.1124 C   0  0  0  0  0  0  0  0  0  0  0  0
  -22.5802   13.4832   29.9166 H   0  0  0  0  0  0  0  0  0  0  0  0
  -22.7929   11.8002   28.6341 C   0  0  0  0  0  0  0  0  0  0  0  0
  -21.9920   11.2649   29.0807 H   0  0  0  0  0  0  0  0  0  0  0  0
  -23.4986   11.2303   27.5751 C   0  0  0  0  0  0  0  0  0  0  0  0
  -23.2352   10.2668   27.2178 H   0  0  0  0  0  0  0  0  0  0  0  0
  -24.5476   11.9302   26.9880 C   0  0  0  0  0  0  0  0  0  0  0  0
  -25.0950   11.5149   26.1822 H   0  0  0  0  0  0  0  0  0  0  0  0
  1  2  1  0
  2  3  1  0
  2 28  2  0
  3  4  1  0
  3 22  2  0
  4  5  1  0
  4  6  1  0
  4  7  1  0
  7  8  1  0
  7 16  1  0
  7 19  1  0
  8  9  2  0
  8 10  1  0
 10 11  1  0
 10 12  1  0
 12 13  1  0
 12 14  1  0
 12 15  1  0
 16 17  1  0
 16 18  1  0
 16 19  1  0
 19 20  1  0
 19 21  1  0
 22 23  1  0
 22 24  1  0
 24 25  1  0
 24 26  2  0
 26 27  1  0
 26 28  1  0
 28 29  1  0
M  END
$$$$
