
     RDKit          3D

 16 17  0  0  0  0  0  0  0  0999 V2000
  -18.4299   11.2073   24.3000 Br  0  0  0  0  0  0  0  0  0  0  0  0
  -18.8305   12.7605   25.3095 C   0  0  0  0  0  0  0  0  0  0  0  0
  -19.8097   12.7878   26.3399 C   0  0  0  0  0  0  0  0  0  0  0  0
  -20.0121   14.0140   27.0183 C   0  0  0  0  0  0  0  0  0  0  0  0
  -19.2986   15.1334   26.7038 N   0  0  0  0  0  0  0  0  0  0  0  0
  -18.4053   15.0916   25.7575 C   0  0  0  0  0  0  0  0  0  0  0  0
  -17.8646   15.9790   25.5350 H   0  0  0  0  0  0  0  0  0  0  0  0
  -18.1413   13.9142   25.0318 C   0  0  0  0  0  0  0  0  0  0  0  0
  -17.4039   13.9317   24.2707 H   0  0  0  0  0  0  0  0  0  0  0  0
  -20.9305   14.1333   28.0202 N   0  0  0  0  0  0  0  0  0  0  0  0
  -21.6468   13.1023   28.3728 C   0  0  0  0  0  0  0  0  0  0  0  0
  -22.3542   13.2251   29.1560 H   0  0  0  0  0  0  0  0  0  0  0  0
  -21.5074   11.8446   27.7482 C   0  0  0  0  0  0  0  0  0  0  0  0
  -22.1131   11.0376   28.0719 H   0  0  0  0  0  0  0  0  0  0  0  0
  -20.5973   11.6759   26.7361 C   0  0  0  0  0  0  0  0  0  0  0  0
  -20.4910   10.7327   26.2654 H   0  0  0  0  0  0  0  0  0  0  0  0
  1  2  1  0
  2  3  1  0
  2  8  2  0
  3  4  1  0
  3 15  2  0
  4  5  1  0
  4 10  2  0
  5  6  2  0
  6  7  1  0
  6  8  1  0
  8  9  1  0
 10 11  1  0
 11 12  1  0
 11 13  2  0
 13 14  1  0
 13 15  1  0
 15 16  1  0
M  END
$$$$
