
     RDKit          3D

 25 27  0  0  0  0  0  0  0  0999 V2000
  -18.5256   16.7488   26.5958 O   0  0  0  0  0  0  0  0  0  0  0  0
  -17.7860   15.9742   25.9918 C   0  0  0  0  0  0  0  0  0  0  0  0
  -16.4509   16.2446   25.9532 N   0  0  0  0  0  0  0  0  0  0  0  0
  -15.8736   15.5547   25.4450 H   0  0  0  0  0  0  0  0  0  0  0  0
  -15.8330   17.3767   26.5585 C   0  0  0  0  0  0  0  0  0  0  0  0
  -15.6936   17.2607   27.6308 H   0  0  0  0  0  0  0  0  0  0  0  0
  -16.1336   18.7679   26.0700 C   0  0  0  0  0  0  0  0  0  0  0  0
  -16.7954   18.8917   25.2214 H   0  0  0  0  0  0  0  0  0  0  0  0
  -16.2049   19.5568   26.8094 H   0  0  0  0  0  0  0  0  0  0  0  0
  -14.7842   18.1616   25.8204 C   0  0  0  0  0  0  0  0  0  0  0  0
  -13.9417   18.5337   26.3907 H   0  0  0  0  0  0  0  0  0  0  0  0
  -14.5397   17.8643   24.8071 H   0  0  0  0  0  0  0  0  0  0  0  0
  -18.2337   14.7778   25.3174 C   0  0  0  0  0  0  0  0  0  0  0  0
  -18.3281   13.5245   25.8686 C   0  0  0  0  0  0  0  0  0  0  0  0
  -18.7970   12.7342   24.8460 N   0  0  0  0  0  0  0  0  0  0  0  0
  -19.0023   13.4246   23.6930 N   0  0  0  0  0  0  0  0  0  0  0  0
  -18.6576   14.6532   23.9952 C   0  0  0  0  0  0  0  0  0  0  0  0
  -18.7019   15.4550   23.3004 H   0  0  0  0  0  0  0  0  0  0  0  0
  -19.0245   11.3644   25.0284 C   0  0  0  0  0  0  0  0  0  0  0  0
  -19.3849   10.8388   24.1828 H   0  0  0  0  0  0  0  0  0  0  0  0
  -18.7533   10.8681   26.2745 C   0  0  0  0  0  0  0  0  0  0  0  0
  -18.8981    9.8421   26.4912 H   0  0  0  0  0  0  0  0  0  0  0  0
  -18.2656   11.7250   27.3158 C   0  0  0  0  0  0  0  0  0  0  0  0
  -18.0624   11.3175   28.2728 H   0  0  0  0  0  0  0  0  0  0  0  0
  -18.0561   13.0013   27.1399 N   0  0  0  0  0  0  0  0  0  0  0  0
  1  2  2  0
  2  3  1  0
  2 13  1  0
  3  4  1  0
  3  5  1  0
  5  6  1  0
  5  7  1  0
  5 10  1  0
  7  8  1  0
  7  9  1  0
  7 10  1  0
 10 11  1  0
 10 12  1  0
 13 14  2  0
 13 17  1  0
 14 15  1  0
 14 25  1  0
 15 16  1  0
 15 19  1  0
 16 17  2  0
 17 18  1  0
 19 20  1  0
 19 21  2  0
 21 22  1  0
 21 23  1  0
 23 24  1  0
 23 25  2  0
M  END
$$$$
