
     RDKit          3D

 26 26  0  0  0  0  0  0  0  0999 V2000
  -15.2920   17.8775   26.5699 S   0  0  0  0  0  0  0  0  0  0  0  0
  -14.2856   16.9409   27.0202 O   0  0  0  0  0  0  0  0  0  0  0  0
  -15.7232   18.9851   27.3960 O   0  0  0  0  0  0  0  0  0  0  0  0
  -16.6798   17.0271   26.1359 N   0  0  0  0  0  0  0  0  0  0  0  0
  -16.6933   16.6932   25.1689 H   0  0  0  0  0  0  0  0  0  0  0  0
  -17.3643   16.1872   27.1372 C   0  0  0  0  0  0  0  0  0  0  0  0
  -16.7245   15.3223   27.3445 H   0  0  0  0  0  0  0  0  0  0  0  0
  -17.5143   16.7360   28.0734 H   0  0  0  0  0  0  0  0  0  0  0  0
  -18.7058   15.6944   26.5895 C   0  0  0  0  0  0  0  0  0  0  0  0
  -19.4669   15.6915   27.3806 H   0  0  0  0  0  0  0  0  0  0  0  0
  -19.0648   16.4026   25.8319 H   0  0  0  0  0  0  0  0  0  0  0  0
  -18.6209   14.3196   25.9633 C   0  0  0  0  0  0  0  0  0  0  0  0
  -18.4485   14.1886   24.5802 C   0  0  0  0  0  0  0  0  0  0  0  0
  -18.3907   15.0495   23.9663 H   0  0  0  0  0  0  0  0  0  0  0  0
  -18.3528   12.9251   24.0021 C   0  0  0  0  0  0  0  0  0  0  0  0
  -18.2227   12.8132   22.9569 H   0  0  0  0  0  0  0  0  0  0  0  0
  -18.4288   11.8073   24.8206 C   0  0  0  0  0  0  0  0  0  0  0  0
  -18.3367   10.5903   24.2655 F   0  0  0  0  0  0  0  0  0  0  0  0
  -18.5940   11.9088   26.1943 C   0  0  0  0  0  0  0  0  0  0  0  0
  -18.6415   11.0369   26.7925 H   0  0  0  0  0  0  0  0  0  0  0  0
  -18.6908   13.1757   26.7649 C   0  0  0  0  0  0  0  0  0  0  0  0
  -18.8091   13.2683   27.8149 H   0  0  0  0  0  0  0  0  0  0  0  0
  -14.7742   18.5427   25.0023 C   0  0  0  0  0  0  0  0  0  0  0  0
  -14.5053   17.7232   24.3336 H   0  0  0  0  0  0  0  0  0  0  0  0
  -13.9004   19.1744   25.1780 H   0  0  0  0  0  0  0  0  0  0  0  0
  -15.5856   19.1418   24.5859 H   0  0  0  0  0  0  0  0  0  0  0  0
  1  2  2  0
  1  3  2  0
  1  4  1  0
  1 23  1  0
  4  5  1  0
  4  6  1  0
  6  7  1  0
  6  8  1  0
  6  9  1  0
  9 10  1  0
  9 11  1  0
  9 12  1  0
 12 13  1  0
 12 21  2  0
 13 14  1  0
 13 15  2  0
 15 16  1  0
 15 17  1  0
 17 18  1  0
 17 19  2  0
 19 20  1  0
 19 21  1  0
 21 22  1  0
 23 24  1  0
 23 25  1  0
 23 26  1  0
M  END
$$$$
