
     RDKit          3D

 18 18  0  0  0  0  0  0  0  0999 V2000
  -17.0829   15.0362   25.0174 O   0  0  0  0  0  0  0  0  0  0  0  0
  -18.0346   15.0349   25.7848 C   0  0  0  0  0  0  0  0  0  0  0  0
  -18.3484   16.0556   26.6372 O   0  0  0  0  0  0  0  0  0  0  0  0
  -17.4250   17.1547   26.6813 C   0  0  0  0  0  0  0  0  0  0  0  0
  -17.9049   17.9529   27.2576 H   0  0  0  0  0  0  0  0  0  0  0  0
  -17.2319   17.5518   25.6786 H   0  0  0  0  0  0  0  0  0  0  0  0
  -16.1415   16.7297   27.3679 C   0  0  0  0  0  0  0  0  0  0  0  0
  -15.6431   15.9312   26.8091 H   0  0  0  0  0  0  0  0  0  0  0  0
  -16.3518   16.3342   28.3669 H   0  0  0  0  0  0  0  0  0  0  0  0
  -15.4530   17.5743   27.4605 H   0  0  0  0  0  0  0  0  0  0  0  0
  -18.9606   13.9214   25.8840 C   0  0  0  0  0  0  0  0  0  0  0  0
  -19.1414   12.9109   24.9860 C   0  0  0  0  0  0  0  0  0  0  0  0
  -18.6782   12.7051   24.0555 H   0  0  0  0  0  0  0  0  0  0  0  0
  -20.0972   12.1233   25.5059 N   0  0  0  0  0  0  0  0  0  0  0  0
  -20.4678   11.2602   25.0617 H   0  0  0  0  0  0  0  0  0  0  0  0
  -20.5429   12.5844   26.7063 N   0  0  0  0  0  0  0  0  0  0  0  0
  -19.8534   13.6683   26.9266 C   0  0  0  0  0  0  0  0  0  0  0  0
  -19.9690   14.2686   27.7939 H   0  0  0  0  0  0  0  0  0  0  0  0
  1  2  2  0
  2  3  1  0
  2 11  1  0
  3  4  1  0
  4  5  1  0
  4  6  1  0
  4  7  1  0
  7  8  1  0
  7  9  1  0
  7 10  1  0
 11 12  2  0
 11 17  1  0
 12 13  1  0
 12 14  1  0
 14 15  1  0
 14 16  1  0
 16 17  2  0
 17 18  1  0
M  END
$$$$
