
     RDKit          3D

 23 23  0  0  0  0  0  0  0  0999 V2000
  -26.3494   14.8612   28.5360 S   0  0  0  0  0  0  0  0  0  0  0  0
  -26.8301   14.6365   27.1822 O   0  0  0  0  0  0  0  0  0  0  0  0
  -27.2028   14.5946   29.6782 O   0  0  0  0  0  0  0  0  0  0  0  0
  -25.7977   16.5439   28.6365 C   0  0  0  0  0  0  0  0  0  0  0  0
  -25.0681   16.7277   27.8451 H   0  0  0  0  0  0  0  0  0  0  0  0
  -25.3566   16.7201   29.6194 H   0  0  0  0  0  0  0  0  0  0  0  0
  -26.6643   17.1933   28.4993 H   0  0  0  0  0  0  0  0  0  0  0  0
  -24.8577   13.9321   28.7541 C   0  0  0  0  0  0  0  0  0  0  0  0
  -24.3667   13.5648   30.0190 C   0  0  0  0  0  0  0  0  0  0  0  0
  -25.0581   13.9504   31.1647 N   0  0  0  0  0  0  0  0  0  0  0  0
  -25.9394   14.4657   31.0261 H   0  0  0  0  0  0  0  0  0  0  0  0
  -24.6295   13.7168   32.5226 C   0  0  0  0  0  0  0  0  0  0  0  0
  -24.4964   12.6472   32.7167 H   0  0  0  0  0  0  0  0  0  0  0  0
  -25.3917   14.0882   33.2148 H   0  0  0  0  0  0  0  0  0  0  0  0
  -23.6972   14.2469   32.7398 H   0  0  0  0  0  0  0  0  0  0  0  0
  -23.2034   12.7909   30.1247 C   0  0  0  0  0  0  0  0  0  0  0  0
  -22.8436   12.4860   31.0711 H   0  0  0  0  0  0  0  0  0  0  0  0
  -22.5106   12.4165   28.9811 C   0  0  0  0  0  0  0  0  0  0  0  0
  -21.6259   11.8384   29.0626 H   0  0  0  0  0  0  0  0  0  0  0  0
  -22.9728   12.8012   27.7268 C   0  0  0  0  0  0  0  0  0  0  0  0
  -22.4375   12.5205   26.8548 H   0  0  0  0  0  0  0  0  0  0  0  0
  -24.1401   13.5510   27.6174 C   0  0  0  0  0  0  0  0  0  0  0  0
  -24.4898   13.8365   26.6577 H   0  0  0  0  0  0  0  0  0  0  0  0
  1  2  2  0
  1  3  2  0
  1  4  1  0
  1  8  1  0
  4  5  1  0
  4  6  1  0
  4  7  1  0
  8  9  1  0
  8 22  2  0
  9 10  1  0
  9 16  2  0
 10 11  1  0
 10 12  1  0
 12 13  1  0
 12 14  1  0
 12 15  1  0
 16 17  1  0
 16 18  1  0
 18 19  1  0
 18 20  2  0
 20 21  1  0
 20 22  1  0
 22 23  1  0
M  END
$$$$
