
     RDKit          3D

 26 26  0  0  0  0  0  0  0  0999 V2000
  -24.6440   11.7999   31.1189 F   0  0  0  0  0  0  0  0  0  0  0  0
  -24.1846   12.1180   29.8985 C   0  0  0  0  0  0  0  0  0  0  0  0
  -24.6571   13.2377   29.1895 C   0  0  0  0  0  0  0  0  0  0  0  0
  -25.6180   14.1082   29.7283 N   0  0  0  0  0  0  0  0  0  0  0  0
  -25.2615   15.5426   29.8375 C   0  0  0  0  0  0  0  0  0  0  0  0
  -25.6468   16.3091   28.5586 C   0  0  0  0  0  0  0  0  0  0  0  0
  -26.7237   16.2292   28.3747 H   0  0  0  0  0  0  0  0  0  0  0  0
  -25.1320   15.9096   27.6793 H   0  0  0  0  0  0  0  0  0  0  0  0
  -25.3222   17.6943   28.6561 O   0  0  0  0  0  0  0  0  0  0  0  0
  -25.8268   18.0153   29.4250 H   0  0  0  0  0  0  0  0  0  0  0  0
  -23.7831   15.7526   30.1871 C   0  0  0  0  0  0  0  0  0  0  0  0
  -23.6029   16.8033   30.4415 H   0  0  0  0  0  0  0  0  0  0  0  0
  -23.1145   15.5084   29.3564 H   0  0  0  0  0  0  0  0  0  0  0  0
  -23.4941   15.1459   31.0509 H   0  0  0  0  0  0  0  0  0  0  0  0
  -26.9186   13.6120   30.1541 C   0  0  0  0  0  0  0  0  0  0  0  0
  -27.5581   13.4090   29.2888 H   0  0  0  0  0  0  0  0  0  0  0  0
  -27.4475   14.3239   30.7945 H   0  0  0  0  0  0  0  0  0  0  0  0
  -26.8181   12.7027   30.7588 H   0  0  0  0  0  0  0  0  0  0  0  0
  -24.1970   13.5314   27.9636 N   0  0  0  0  0  0  0  0  0  0  0  0
  -23.2818   12.7251   27.4114 C   0  0  0  0  0  0  0  0  0  0  0  0
  -22.9333   12.9691   26.4408 H   0  0  0  0  0  0  0  0  0  0  0  0
  -22.7842   11.5958   28.0644 C   0  0  0  0  0  0  0  0  0  0  0  0
  -22.0610   10.9858   27.5893 H   0  0  0  0  0  0  0  0  0  0  0  0
  -23.2406   11.2770   29.3408 C   0  0  0  0  0  0  0  0  0  0  0  0
  -22.8841   10.4304   29.8680 H   0  0  0  0  0  0  0  0  0  0  0  0
  -25.8082   15.9934   30.6767 H   0  0  0  0  0  0  0  0  0  0  0  0
  1  2  1  0
  2  3  1  0
  2 24  2  0
  3  4  1  0
  3 19  2  0
  4  5  1  0
  4 15  1  0
  5  6  1  0
  5 11  1  0
  5 26  1  0
  6  7  1  0
  6  8  1  0
  6  9  1  0
  9 10  1  0
 11 12  1  0
 11 13  1  0
 11 14  1  0
 15 16  1  0
 15 17  1  0
 15 18  1  0
 19 20  1  0
 20 21  1  0
 20 22  2  0
 22 23  1  0
 22 24  1  0
 24 25  1  0
M  END
$$$$
