
     RDKit          3D

 18 18  0  0  0  0  0  0  0  0999 V2000
  -19.3771   13.3341   27.6554 O   0  0  0  0  0  0  0  0  0  0  0  0
  -18.8896   13.4364   26.5388 C   0  0  0  0  0  0  0  0  0  0  0  0
  -18.3274   14.5761   26.0366 O   0  0  0  0  0  0  0  0  0  0  0  0
  -18.0938   15.6377   26.9751 C   0  0  0  0  0  0  0  0  0  0  0  0
  -17.4279   15.2403   27.7485 H   0  0  0  0  0  0  0  0  0  0  0  0
  -19.0221   15.9398   27.4725 H   0  0  0  0  0  0  0  0  0  0  0  0
  -17.4280   16.8099   26.2807 C   0  0  0  0  0  0  0  0  0  0  0  0
  -18.0759   17.2246   25.5020 H   0  0  0  0  0  0  0  0  0  0  0  0
  -16.5037   16.4912   25.7880 H   0  0  0  0  0  0  0  0  0  0  0  0
  -17.1912   17.6016   26.9971 H   0  0  0  0  0  0  0  0  0  0  0  0
  -18.8543   12.3346   25.5945 C   0  0  0  0  0  0  0  0  0  0  0  0
  -18.1765   12.2772   24.4124 C   0  0  0  0  0  0  0  0  0  0  0  0
  -17.5492   12.9791   23.9261 H   0  0  0  0  0  0  0  0  0  0  0  0
  -18.4460   11.0685   23.8921 N   0  0  0  0  0  0  0  0  0  0  0  0
  -18.0786   10.7112   22.9882 H   0  0  0  0  0  0  0  0  0  0  0  0
  -19.2724   10.3403   24.6915 N   0  0  0  0  0  0  0  0  0  0  0  0
  -19.5140   11.1105   25.7148 C   0  0  0  0  0  0  0  0  0  0  0  0
  -20.1350   10.8260   26.5269 H   0  0  0  0  0  0  0  0  0  0  0  0
  1  2  2  0
  2  3  1  0
  2 11  1  0
  3  4  1  0
  4  5  1  0
  4  6  1  0
  4  7  1  0
  7  8  1  0
  7  9  1  0
  7 10  1  0
 11 12  2  0
 11 17  1  0
 12 13  1  0
 12 14  1  0
 14 15  1  0
 14 16  1  0
 16 17  2  0
 17 18  1  0
M  END
$$$$
