
     RDKit          3D

 23 23  0  0  0  0  0  0  0  0999 V2000
  -18.8490   15.8854   26.6385 S   0  0  0  0  0  0  0  0  0  0  0  0
  -18.9596   16.5294   25.3395 O   0  0  0  0  0  0  0  0  0  0  0  0
  -19.5554   16.4148   27.7895 O   0  0  0  0  0  0  0  0  0  0  0  0
  -17.1249   15.7870   27.0429 C   0  0  0  0  0  0  0  0  0  0  0  0
  -16.5955   15.2889   26.2279 H   0  0  0  0  0  0  0  0  0  0  0  0
  -17.0051   15.2356   27.9774 H   0  0  0  0  0  0  0  0  0  0  0  0
  -16.7465   16.8038   27.1633 H   0  0  0  0  0  0  0  0  0  0  0  0
  -19.3199   14.1881   26.4558 C   0  0  0  0  0  0  0  0  0  0  0  0
  -18.8990   13.3926   25.3760 C   0  0  0  0  0  0  0  0  0  0  0  0
  -18.0892   13.9460   24.3873 N   0  0  0  0  0  0  0  0  0  0  0  0
  -17.9591   14.9678   24.4092 H   0  0  0  0  0  0  0  0  0  0  0  0
  -17.4462   13.2151   23.3222 C   0  0  0  0  0  0  0  0  0  0  0  0
  -16.7807   12.4412   23.7194 H   0  0  0  0  0  0  0  0  0  0  0  0
  -16.8386   13.9013   22.7238 H   0  0  0  0  0  0  0  0  0  0  0  0
  -18.1833   12.7570   22.6556 H   0  0  0  0  0  0  0  0  0  0  0  0
  -19.2693   12.0428   25.3101 C   0  0  0  0  0  0  0  0  0  0  0  0
  -18.9329   11.4303   24.5165 H   0  0  0  0  0  0  0  0  0  0  0  0
  -20.0850   11.4965   26.2920 C   0  0  0  0  0  0  0  0  0  0  0  0
  -20.3715   10.4775   26.2366 H   0  0  0  0  0  0  0  0  0  0  0  0
  -20.5308   12.2844   27.3481 C   0  0  0  0  0  0  0  0  0  0  0  0
  -21.1604   11.8667   28.0931 H   0  0  0  0  0  0  0  0  0  0  0  0
  -20.1465   13.6195   27.4281 C   0  0  0  0  0  0  0  0  0  0  0  0
  -20.4858   14.2133   28.2388 H   0  0  0  0  0  0  0  0  0  0  0  0
  1  2  2  0
  1  3  2  0
  1  4  1  0
  1  8  1  0
  4  5  1  0
  4  6  1  0
  4  7  1  0
  8  9  1  0
  8 22  2  0
  9 10  1  0
  9 16  2  0
 10 11  1  0
 10 12  1  0
 12 13  1  0
 12 14  1  0
 12 15  1  0
 16 17  1  0
 16 18  1  0
 18 19  1  0
 18 20  2  0
 20 21  1  0
 20 22  1  0
 22 23  1  0
M  END
$$$$
