
     RDKit          3D

 24 25  0  0  0  0  0  0  0  0999 V2000
  -24.5764   13.6534   28.2838 S   0  0  0  0  0  0  0  0  0  0  0  0
  -24.9012   13.4043   26.8933 O   0  0  0  0  0  0  0  0  0  0  0  0
  -24.1035   14.9588   28.7148 O   0  0  0  0  0  0  0  0  0  0  0  0
  -23.3855   12.4393   28.8274 C   0  0  0  0  0  0  0  0  0  0  0  0
  -23.1972   12.6073   29.8914 H   0  0  0  0  0  0  0  0  0  0  0  0
  -23.8273   11.4498   28.6814 H   0  0  0  0  0  0  0  0  0  0  0  0
  -22.1253   12.5870   28.0493 C   0  0  0  0  0  0  0  0  0  0  0  0
  -21.5979   11.5791   27.2886 N   0  0  0  0  0  0  0  0  0  0  0  0
  -21.9712   10.6239   27.1939 H   0  0  0  0  0  0  0  0  0  0  0  0
  -20.4852   12.0523   26.6754 C   0  0  0  0  0  0  0  0  0  0  0  0
  -20.3812   13.3615   27.0973 C   0  0  0  0  0  0  0  0  0  0  0  0
  -21.4194   13.6644   27.9527 N   0  0  0  0  0  0  0  0  0  0  0  0
  -19.3154   14.1436   26.6328 C   0  0  0  0  0  0  0  0  0  0  0  0
  -19.2284   15.1485   26.9537 H   0  0  0  0  0  0  0  0  0  0  0  0
  -18.3914   13.5813   25.7612 C   0  0  0  0  0  0  0  0  0  0  0  0
  -17.5810   14.1630   25.4044 H   0  0  0  0  0  0  0  0  0  0  0  0
  -18.5205   12.2364   25.3427 C   0  0  0  0  0  0  0  0  0  0  0  0
  -17.8040   11.8269   24.6759 H   0  0  0  0  0  0  0  0  0  0  0  0
  -19.5712   11.4552   25.7966 C   0  0  0  0  0  0  0  0  0  0  0  0
  -19.6795   10.4462   25.4921 H   0  0  0  0  0  0  0  0  0  0  0  0
  -26.0117   13.2560   29.2493 C   0  0  0  0  0  0  0  0  0  0  0  0
  -26.3230   12.2369   29.0138 H   0  0  0  0  0  0  0  0  0  0  0  0
  -26.8043   13.9600   28.9876 H   0  0  0  0  0  0  0  0  0  0  0  0
  -25.7629   13.3506   30.3085 H   0  0  0  0  0  0  0  0  0  0  0  0
  1  2  2  0
  1  3  2  0
  1  4  1  0
  1 21  1  0
  4  5  1  0
  4  6  1  0
  4  7  1  0
  7  8  1  0
  7 12  2  0
  8  9  1  0
  8 10  1  0
 10 11  1  0
 10 19  2  0
 11 12  1  0
 11 13  2  0
 13 14  1  0
 13 15  1  0
 15 16  1  0
 15 17  2  0
 17 18  1  0
 17 19  1  0
 19 20  1  0
 21 22  1  0
 21 23  1  0
 21 24  1  0
M  END
$$$$
