
     RDKit          3D

 21 21  0  0  0  0  0  0  0  0999 V2000
  -17.7013   11.6170   24.1815 Br  0  0  0  0  0  0  0  0  0  0  0  0
  -18.9976   12.1366   25.4584 C   0  0  0  0  0  0  0  0  0  0  0  0
  -19.0365   13.4484   25.9184 C   0  0  0  0  0  0  0  0  0  0  0  0
  -18.3454   14.1652   25.5643 H   0  0  0  0  0  0  0  0  0  0  0  0
  -19.9926   13.8168   26.8602 C   0  0  0  0  0  0  0  0  0  0  0  0
  -19.9746   15.1159   27.2964 O   0  0  0  0  0  0  0  0  0  0  0  0
  -18.7333   15.8448   27.1384 C   0  0  0  0  0  0  0  0  0  0  0  0
  -18.8161   16.7790   27.6914 H   0  0  0  0  0  0  0  0  0  0  0  0
  -18.5814   16.0324   26.0765 H   0  0  0  0  0  0  0  0  0  0  0  0
  -17.9155   15.2432   27.5339 H   0  0  0  0  0  0  0  0  0  0  0  0
  -20.9324   12.8969   27.3456 C   0  0  0  0  0  0  0  0  0  0  0  0
  -22.0212   13.2758   28.3500 C   0  0  0  0  0  0  0  0  0  0  0  0
  -21.8586   14.2912   28.6764 H   0  0  0  0  0  0  0  0  0  0  0  0
  -22.0534   12.5830   29.1743 H   0  0  0  0  0  0  0  0  0  0  0  0
  -23.3642   13.2338   27.6565 C   0  0  0  0  0  0  0  0  0  0  0  0
  -24.3366   13.7506   28.2519 O   0  0  0  0  0  0  0  0  0  0  0  0
  -23.4363   12.6423   26.5562 O   0  0  0  0  0  0  0  0  0  0  0  0
  -20.8730   11.5849   26.8785 C   0  0  0  0  0  0  0  0  0  0  0  0
  -21.5637   10.8687   27.2507 H   0  0  0  0  0  0  0  0  0  0  0  0
  -19.9143   11.2045   25.9425 C   0  0  0  0  0  0  0  0  0  0  0  0
  -19.8812   10.2028   25.6017 H   0  0  0  0  0  0  0  0  0  0  0  0
  1  2  1  0
  2  3  1  0
  2 20  2  0
  3  4  1  0
  3  5  2  0
  5  6  1  0
  5 11  1  0
  6  7  1  0
  7  8  1  0
  7  9  1  0
  7 10  1  0
 11 12  1  0
 11 18  2  0
 12 13  1  0
 12 14  1  0
 12 15  1  0
 15 16  1  0
 15 17  2  0
 18 19  1  0
 18 20  1  0
 20 21  1  0
M  END
$$$$
