
     RDKit          3D

 30 31  0  0  0  0  0  0  0  0999 V2000
  -16.0146   19.7370   27.5981 F   0  0  0  0  0  0  0  0  0  0  0  0
  -16.5898   18.6105   27.1532 C   0  0  0  0  0  0  0  0  0  0  0  0
  -15.7856   17.6140   26.6132 C   0  0  0  0  0  0  0  0  0  0  0  0
  -14.7373   17.7495   26.5536 H   0  0  0  0  0  0  0  0  0  0  0  0
  -16.3830   16.4459   26.1506 C   0  0  0  0  0  0  0  0  0  0  0  0
  -15.7959   15.6801   25.7174 H   0  0  0  0  0  0  0  0  0  0  0  0
  -17.7732   16.2890   26.2389 C   0  0  0  0  0  0  0  0  0  0  0  0
  -18.3708   15.1239   25.7758 N   0  0  0  0  0  0  0  0  0  0  0  0
  -18.2830   14.7068   24.3698 C   0  0  0  0  0  0  0  0  0  0  0  0
  -19.2788   14.7766   23.9155 H   0  0  0  0  0  0  0  0  0  0  0  0
  -17.6054   15.3392   23.7855 H   0  0  0  0  0  0  0  0  0  0  0  0
  -17.7656   13.2620   24.2910 C   0  0  0  0  0  0  0  0  0  0  0  0
  -16.7266   13.2195   24.6397 H   0  0  0  0  0  0  0  0  0  0  0  0
  -17.7708   12.9254   23.2491 H   0  0  0  0  0  0  0  0  0  0  0  0
  -18.5325   12.3529   25.1528 N   0  0  0  0  0  0  0  0  0  0  0  0
  -19.0865   11.2296   24.6022 C   0  0  0  0  0  0  0  0  0  0  0  0
  -19.1383   11.0135   23.4033 O   0  0  0  0  0  0  0  0  0  0  0  0
  -19.5775   10.3309   25.4591 N   0  0  0  0  0  0  0  0  0  0  0  0
  -18.9670   10.1300   26.2582 H   0  0  0  0  0  0  0  0  0  0  0  0
  -20.5886   10.3566   25.6073 H   0  0  0  0  0  0  0  0  0  0  0  0
  -18.6300   12.7947   26.5556 C   0  0  0  0  0  0  0  0  0  0  0  0
  -19.2927   12.1519   27.1386 H   0  0  0  0  0  0  0  0  0  0  0  0
  -17.6233   12.7246   26.9828 H   0  0  0  0  0  0  0  0  0  0  0  0
  -19.1523   14.2381   26.6489 C   0  0  0  0  0  0  0  0  0  0  0  0
  -19.1615   14.5614   27.6953 H   0  0  0  0  0  0  0  0  0  0  0  0
  -20.1961   14.2654   26.3108 H   0  0  0  0  0  0  0  0  0  0  0  0
  -18.5685   17.3104   26.7842 C   0  0  0  0  0  0  0  0  0  0  0  0
  -19.6162   17.1965   26.8605 H   0  0  0  0  0  0  0  0  0  0  0  0
  -17.9701   18.4787   27.2458 C   0  0  0  0  0  0  0  0  0  0  0  0
  -18.5497   19.2594   27.6644 H   0  0  0  0  0  0  0  0  0  0  0  0
  1  2  1  0
  2  3  1  0
  2 29  2  0
  3  4  1  0
  3  5  2  0
  5  6  1  0
  5  7  1  0
  7  8  1  0
  7 27  2  0
  8  9  1  0
  8 24  1  0
  9 10  1  0
  9 11  1  0
  9 12  1  0
 12 13  1  0
 12 14  1  0
 12 15  1  0
 15 16  1  0
 15 21  1  0
 16 17  2  0
 16 18  1  0
 18 19  1  0
 18 20  1  0
 21 22  1  0
 21 23  1  0
 21 24  1  0
 24 25  1  0
 24 26  1  0
 27 28  1  0
 27 29  1  0
 29 30  1  0
M  END
$$$$
