
     RDKit          3D

 29 30  0  0  0  0  0  0  0  0999 V2000
  -25.5367   14.2549   27.8910 C   0  0  0  0  0  0  0  0  0  0  0  0
  -25.8219   13.6954   26.9932 H   0  0  0  0  0  0  0  0  0  0  0  0
  -24.9370   15.1192   27.5809 H   0  0  0  0  0  0  0  0  0  0  0  0
  -26.4453   14.6541   28.3551 H   0  0  0  0  0  0  0  0  0  0  0  0
  -24.7706   13.3792   28.8770 C   0  0  0  0  0  0  0  0  0  0  0  0
  -24.4510   14.1580   30.0304 O   0  0  0  0  0  0  0  0  0  0  0  0
  -23.9018   14.9019   29.7349 H   0  0  0  0  0  0  0  0  0  0  0  0
  -23.5395   12.7939   28.2610 C   0  0  0  0  0  0  0  0  0  0  0  0
  -23.4616   11.6063   27.5412 C   0  0  0  0  0  0  0  0  0  0  0  0
  -24.2695   10.9525   27.3377 H   0  0  0  0  0  0  0  0  0  0  0  0
  -22.2448   11.3797   27.1304 N   0  0  0  0  0  0  0  0  0  0  0  0
  -21.5142   12.4369   27.5889 N   0  0  0  0  0  0  0  0  0  0  0  0
  -20.0981   12.5359   27.3276 C   0  0  0  0  0  0  0  0  0  0  0  0
  -19.5750   12.2395   28.2464 H   0  0  0  0  0  0  0  0  0  0  0  0
  -19.6057   11.6651   26.1733 C   0  0  0  0  0  0  0  0  0  0  0  0
  -19.5533   10.6053   26.4441 H   0  0  0  0  0  0  0  0  0  0  0  0
  -20.2618   11.7478   25.2980 H   0  0  0  0  0  0  0  0  0  0  0  0
  -18.2332   12.2401   25.8375 C   0  0  0  0  0  0  0  0  0  0  0  0
  -17.4493   11.6874   26.3680 H   0  0  0  0  0  0  0  0  0  0  0  0
  -18.0203   12.1619   24.7667 H   0  0  0  0  0  0  0  0  0  0  0  0
  -18.2507   13.6942   26.3104 C   0  0  0  0  0  0  0  0  0  0  0  0
  -18.0526   14.3912   25.4900 H   0  0  0  0  0  0  0  0  0  0  0  0
  -17.4702   13.8480   27.0653 H   0  0  0  0  0  0  0  0  0  0  0  0
  -19.6296   13.9309   26.9178 C   0  0  0  0  0  0  0  0  0  0  0  0
  -20.2927   14.3722   26.1630 H   0  0  0  0  0  0  0  0  0  0  0  0
  -19.5929   14.6230   27.7656 H   0  0  0  0  0  0  0  0  0  0  0  0
  -22.2865   13.3053   28.2750 C   0  0  0  0  0  0  0  0  0  0  0  0
  -21.9046   14.1913   28.7127 H   0  0  0  0  0  0  0  0  0  0  0  0
  -25.4224   12.5645   29.2152 H   0  0  0  0  0  0  0  0  0  0  0  0
  1  2  1  0
  1  3  1  0
  1  4  1  0
  1  5  1  0
  5  6  1  0
  5  8  1  0
  5 29  1  0
  6  7  1  0
  8  9  1  0
  8 27  2  0
  9 10  1  0
  9 11  2  0
 11 12  1  0
 12 13  1  0
 12 27  1  0
 13 14  1  0
 13 15  1  0
 13 24  1  0
 15 16  1  0
 15 17  1  0
 15 18  1  0
 18 19  1  0
 18 20  1  0
 18 21  1  0
 21 22  1  0
 21 23  1  0
 21 24  1  0
 24 25  1  0
 24 26  1  0
 27 28  1  0
M  END
$$$$
