
     RDKit          3D

 19 19  0  0  0  0  0  0  0  0999 V2000
  -17.5525   18.0748   25.9946 O   0  0  0  0  0  0  0  0  0  0  0  0
  -16.8380   17.1544   26.3652 C   0  0  0  0  0  0  0  0  0  0  0  0
  -17.2646   15.9000   26.4025 N   0  0  0  0  0  0  0  0  0  0  0  0
  -16.6547   15.1677   26.7233 H   0  0  0  0  0  0  0  0  0  0  0  0
  -18.6048   15.5313   25.9983 C   0  0  0  0  0  0  0  0  0  0  0  0
  -19.3177   16.0213   26.6703 H   0  0  0  0  0  0  0  0  0  0  0  0
  -18.7837   15.9068   24.9851 H   0  0  0  0  0  0  0  0  0  0  0  0
  -18.7373   14.0520   26.0585 C   0  0  0  0  0  0  0  0  0  0  0  0
  -18.4585   13.1647   25.0745 C   0  0  0  0  0  0  0  0  0  0  0  0
  -18.1023   13.2973   24.0854 H   0  0  0  0  0  0  0  0  0  0  0  0
  -18.7285   11.9470   25.5917 N   0  0  0  0  0  0  0  0  0  0  0  0
  -18.6162   11.0454   25.0914 H   0  0  0  0  0  0  0  0  0  0  0  0
  -19.1782   12.0275   26.8711 N   0  0  0  0  0  0  0  0  0  0  0  0
  -19.1783   13.3030   27.1450 C   0  0  0  0  0  0  0  0  0  0  0  0
  -19.4843   13.6955   28.0824 H   0  0  0  0  0  0  0  0  0  0  0  0
  -15.4280   17.3760   26.8374 C   0  0  0  0  0  0  0  0  0  0  0  0
  -14.8197   16.4772   26.7023 H   0  0  0  0  0  0  0  0  0  0  0  0
  -15.4433   17.6428   27.8968 H   0  0  0  0  0  0  0  0  0  0  0  0
  -14.9765   18.1890   26.2621 H   0  0  0  0  0  0  0  0  0  0  0  0
  1  2  2  0
  2  3  1  0
  2 16  1  0
  3  4  1  0
  3  5  1  0
  5  6  1  0
  5  7  1  0
  5  8  1  0
  8  9  2  0
  8 14  1  0
  9 10  1  0
  9 11  1  0
 11 12  1  0
 11 13  1  0
 13 14  2  0
 14 15  1  0
 16 17  1  0
 16 18  1  0
 16 19  1  0
M  END
$$$$
