
     RDKit          3D

 24 25  0  0  0  0  0  0  0  0999 V2000
  -17.6617   14.1455   23.4157 F   0  0  0  0  0  0  0  0  0  0  0  0
  -18.2925   13.7075   24.5162 C   0  0  0  0  0  0  0  0  0  0  0  0
  -18.5354   14.5752   25.5999 C   0  0  0  0  0  0  0  0  0  0  0  0
  -18.1575   15.9058   25.6170 N   0  0  0  0  0  0  0  0  0  0  0  0
  -17.7200   16.3323   24.8058 H   0  0  0  0  0  0  0  0  0  0  0  0
  -18.3245   16.8186   26.7388 C   0  0  0  0  0  0  0  0  0  0  0  0
  -19.3872   16.8707   27.0074 H   0  0  0  0  0  0  0  0  0  0  0  0
  -17.7740   16.4317   27.6046 H   0  0  0  0  0  0  0  0  0  0  0  0
  -17.8508   18.2247   26.4919 C   0  0  0  0  0  0  0  0  0  0  0  0
  -18.5653   19.0742   25.7939 N   0  0  0  0  0  0  0  0  0  0  0  0
  -17.8346   20.2207   25.7803 N   0  0  0  0  0  0  0  0  0  0  0  0
  -18.1480   21.0823   25.2965 H   0  0  0  0  0  0  0  0  0  0  0  0
  -16.6789   20.0915   26.4643 C   0  0  0  0  0  0  0  0  0  0  0  0
  -15.9818   20.8829   26.5657 H   0  0  0  0  0  0  0  0  0  0  0  0
  -16.6730   18.8234   26.9289 C   0  0  0  0  0  0  0  0  0  0  0  0
  -15.9186   18.3693   27.5204 H   0  0  0  0  0  0  0  0  0  0  0  0
  -19.1866   14.0668   26.7264 C   0  0  0  0  0  0  0  0  0  0  0  0
  -19.3671   14.6954   27.5591 H   0  0  0  0  0  0  0  0  0  0  0  0
  -19.5954   12.7334   26.7553 C   0  0  0  0  0  0  0  0  0  0  0  0
  -20.0920   12.3556   27.6119 H   0  0  0  0  0  0  0  0  0  0  0  0
  -19.3582   11.8913   25.6668 C   0  0  0  0  0  0  0  0  0  0  0  0
  -19.6748   10.8802   25.7000 H   0  0  0  0  0  0  0  0  0  0  0  0
  -18.7005   12.3821   24.5402 C   0  0  0  0  0  0  0  0  0  0  0  0
  -18.5078   11.7519   23.7111 H   0  0  0  0  0  0  0  0  0  0  0  0
  1  2  1  0
  2  3  1  0
  2 23  2  0
  3  4  1  0
  3 17  2  0
  4  5  1  0
  4  6  1  0
  6  7  1  0
  6  8  1  0
  6  9  1  0
  9 10  2  0
  9 15  1  0
 10 11  1  0
 11 12  1  0
 11 13  1  0
 13 14  1  0
 13 15  2  0
 15 16  1  0
 17 18  1  0
 17 19  1  0
 19 20  1  0
 19 21  2  0
 21 22  1  0
 21 23  1  0
 23 24  1  0
M  END
$$$$
