
     RDKit          3D

 26 28  0  0  0  0  0  0  0  0999 V2000
  -21.5623   14.3081   28.3973 O   0  0  0  0  0  0  0  0  0  0  0  0
  -21.6985   13.2041   27.8795 C   0  0  0  0  0  0  0  0  0  0  0  0
  -22.7858   12.4532   28.2493 N   0  0  0  0  0  0  0  0  0  0  0  0
  -22.9689   11.5837   27.7403 H   0  0  0  0  0  0  0  0  0  0  0  0
  -23.6937   12.8341   29.2848 C   0  0  0  0  0  0  0  0  0  0  0  0
  -23.3250   12.5935   30.2798 H   0  0  0  0  0  0  0  0  0  0  0  0
  -25.1814   12.7382   29.0815 C   0  0  0  0  0  0  0  0  0  0  0  0
  -25.5580   12.4144   28.1186 H   0  0  0  0  0  0  0  0  0  0  0  0
  -25.7859   12.4231   29.9238 H   0  0  0  0  0  0  0  0  0  0  0  0
  -24.5215   14.0832   29.1555 C   0  0  0  0  0  0  0  0  0  0  0  0
  -24.6692   14.6788   30.0482 H   0  0  0  0  0  0  0  0  0  0  0  0
  -24.4370   14.6623   28.2440 H   0  0  0  0  0  0  0  0  0  0  0  0
  -20.7777   12.6834   26.8455 C   0  0  0  0  0  0  0  0  0  0  0  0
  -19.9632   13.6031   26.1576 C   0  0  0  0  0  0  0  0  0  0  0  0
  -20.0135   14.6387   26.3731 H   0  0  0  0  0  0  0  0  0  0  0  0
  -19.0927   13.1304   25.1898 C   0  0  0  0  0  0  0  0  0  0  0  0
  -18.2482   13.8835   24.4381 O   0  0  0  0  0  0  0  0  0  0  0  0
  -17.6189   12.8653   23.6324 C   0  0  0  0  0  0  0  0  0  0  0  0
  -17.8113   13.0848   22.5767 H   0  0  0  0  0  0  0  0  0  0  0  0
  -16.5373   12.8981   23.8073 H   0  0  0  0  0  0  0  0  0  0  0  0
  -18.0927   11.5330   23.9207 O   0  0  0  0  0  0  0  0  0  0  0  0
  -19.0038   11.7923   24.8958 C   0  0  0  0  0  0  0  0  0  0  0  0
  -19.7815   10.8538   25.5591 C   0  0  0  0  0  0  0  0  0  0  0  0
  -19.6933    9.8238   25.3241 H   0  0  0  0  0  0  0  0  0  0  0  0
  -20.6670   11.3042   26.5390 C   0  0  0  0  0  0  0  0  0  0  0  0
  -21.2532   10.5957   27.0663 H   0  0  0  0  0  0  0  0  0  0  0  0
  1  2  2  0
  2  3  1  0
  2 13  1  0
  3  4  1  0
  3  5  1  0
  5  6  1  0
  5  7  1  0
  5 10  1  0
  7  8  1  0
  7  9  1  0
  7 10  1  0
 10 11  1  0
 10 12  1  0
 13 14  1  0
 13 25  2  0
 14 15  1  0
 14 16  2  0
 16 17  1  0
 16 22  1  0
 17 18  1  0
 18 19  1  0
 18 20  1  0
 18 21  1  0
 21 22  1  0
 22 23  2  0
 23 24  1  0
 23 25  1  0
 25 26  1  0
M  END
$$$$
