
     RDKit          3D

 27 28  0  0  0  0  0  0  0  0999 V2000
  -19.5194   15.1080   26.7945 F   0  0  0  0  0  0  0  0  0  0  0  0
  -19.3802   13.8793   26.2694 C   0  0  0  0  0  0  0  0  0  0  0  0
  -20.1967   12.8359   26.7258 C   0  0  0  0  0  0  0  0  0  0  0  0
  -21.1292   13.1132   27.7159 N   0  0  0  0  0  0  0  0  0  0  0  0
  -21.0100   13.9808   28.2307 H   0  0  0  0  0  0  0  0  0  0  0  0
  -22.2546   12.2723   28.0715 C   0  0  0  0  0  0  0  0  0  0  0  0
  -22.7729   11.9496   27.1596 H   0  0  0  0  0  0  0  0  0  0  0  0
  -21.8830   11.3649   28.5651 H   0  0  0  0  0  0  0  0  0  0  0  0
  -23.2630   12.9258   28.9670 C   0  0  0  0  0  0  0  0  0  0  0  0
  -23.5130   12.6396   30.2690 C   0  0  0  0  0  0  0  0  0  0  0  0
  -22.9294   11.6515   31.2059 C   0  0  0  0  0  0  0  0  0  0  0  0
  -21.8597   11.5214   31.0185 H   0  0  0  0  0  0  0  0  0  0  0  0
  -23.4198   10.6804   31.0847 H   0  0  0  0  0  0  0  0  0  0  0  0
  -23.0495   11.9698   32.2469 H   0  0  0  0  0  0  0  0  0  0  0  0
  -24.5065   13.4857   30.6313 N   0  0  0  0  0  0  0  0  0  0  0  0
  -24.9386   13.5254   31.5737 H   0  0  0  0  0  0  0  0  0  0  0  0
  -24.8941   14.2957   29.6148 N   0  0  0  0  0  0  0  0  0  0  0  0
  -24.1388   13.9467   28.6114 C   0  0  0  0  0  0  0  0  0  0  0  0
  -24.2052   14.3969   27.6537 H   0  0  0  0  0  0  0  0  0  0  0  0
  -20.0376   11.5620   26.1721 C   0  0  0  0  0  0  0  0  0  0  0  0
  -20.6290   10.7558   26.5184 H   0  0  0  0  0  0  0  0  0  0  0  0
  -19.0840   11.3573   25.1745 C   0  0  0  0  0  0  0  0  0  0  0  0
  -18.9620   10.3913   24.7550 H   0  0  0  0  0  0  0  0  0  0  0  0
  -18.2816   12.4097   24.7259 C   0  0  0  0  0  0  0  0  0  0  0  0
  -17.5593   12.2408   23.9695 H   0  0  0  0  0  0  0  0  0  0  0  0
  -18.4295   13.6816   25.2792 C   0  0  0  0  0  0  0  0  0  0  0  0
  -17.8253   14.4888   24.9516 H   0  0  0  0  0  0  0  0  0  0  0  0
  1  2  1  0
  2  3  1  0
  2 26  2  0
  3  4  1  0
  3 20  2  0
  4  5  1  0
  4  6  1  0
  6  7  1  0
  6  8  1  0
  6  9  1  0
  9 10  2  0
  9 18  1  0
 10 11  1  0
 10 15  1  0
 11 12  1  0
 11 13  1  0
 11 14  1  0
 15 16  1  0
 15 17  1  0
 17 18  2  0
 18 19  1  0
 20 21  1  0
 20 22  1  0
 22 23  1  0
 22 24  2  0
 24 25  1  0
 24 26  1  0
 26 27  1  0
M  END
$$$$
