
     RDKit          3D

 25 26  0  0  0  0  0  0  0  0999 V2000
  -22.2828   10.9627   28.6119 O   0  0  0  0  0  0  0  0  0  0  0  0
  -21.8313   11.9845   28.0991 C   0  0  0  0  0  0  0  0  0  0  0  0
  -22.2394   13.2082   28.5712 N   0  0  0  0  0  0  0  0  0  0  0  0
  -21.8095   14.0060   28.0826 H   0  0  0  0  0  0  0  0  0  0  0  0
  -23.1349   13.4635   29.5943 C   0  0  0  0  0  0  0  0  0  0  0  0
  -23.4879   14.7190   29.9376 C   0  0  0  0  0  0  0  0  0  0  0  0
  -23.2023   15.6635   29.5580 H   0  0  0  0  0  0  0  0  0  0  0  0
  -24.3653   14.5651   30.9599 N   0  0  0  0  0  0  0  0  0  0  0  0
  -25.0509   15.5930   31.6996 C   0  0  0  0  0  0  0  0  0  0  0  0
  -24.7470   16.5742   31.3274 H   0  0  0  0  0  0  0  0  0  0  0  0
  -24.7846   15.4952   32.7551 H   0  0  0  0  0  0  0  0  0  0  0  0
  -26.1266   15.4583   31.5613 H   0  0  0  0  0  0  0  0  0  0  0  0
  -24.5743   13.2577   31.2696 N   0  0  0  0  0  0  0  0  0  0  0  0
  -23.8219   12.5870   30.4334 C   0  0  0  0  0  0  0  0  0  0  0  0
  -23.7609   11.5297   30.4166 H   0  0  0  0  0  0  0  0  0  0  0  0
  -20.8776   12.0116   27.0085 C   0  0  0  0  0  0  0  0  0  0  0  0
  -20.4232   10.9185   26.4481 N   0  0  0  0  0  0  0  0  0  0  0  0
  -19.5754   11.2894   25.4930 O   0  0  0  0  0  0  0  0  0  0  0  0
  -19.4832   12.6220   25.4387 C   0  0  0  0  0  0  0  0  0  0  0  0
  -18.5790   13.1920   24.4275 C   0  0  0  0  0  0  0  0  0  0  0  0
  -18.5735   14.2851   24.4760 H   0  0  0  0  0  0  0  0  0  0  0  0
  -18.8945   12.8973   23.4221 H   0  0  0  0  0  0  0  0  0  0  0  0
  -17.5555   12.8393   24.5844 H   0  0  0  0  0  0  0  0  0  0  0  0
  -20.2927   13.1152   26.3846 C   0  0  0  0  0  0  0  0  0  0  0  0
  -20.4591   14.1356   26.6144 H   0  0  0  0  0  0  0  0  0  0  0  0
  1  2  2  0
  2  3  1  0
  2 16  1  0
  3  4  1  0
  3  5  1  0
  5  6  2  0
  5 14  1  0
  6  7  1  0
  6  8  1  0
  8  9  1  0
  8 13  1  0
  9 10  1  0
  9 11  1  0
  9 12  1  0
 13 14  2  0
 14 15  1  0
 16 17  2  0
 16 24  1  0
 17 18  1  0
 18 19  1  0
 19 20  1  0
 19 24  2  0
 20 21  1  0
 20 22  1  0
 20 23  1  0
 24 25  1  0
M  END
$$$$
