
     RDKit          3D

 14 14  0  0  0  0  0  0  0  0999 V2000
  -20.6643   12.2747   28.3324 O   0  0  0  0  0  0  0  0  0  0  0  0
  -20.1604   13.0866   27.5077 C   0  0  0  0  0  0  0  0  0  0  0  0
  -20.2272   14.3312   27.7331 O   0  0  0  0  0  0  0  0  0  0  0  0
  -19.5040   12.5912   26.3045 C   0  0  0  0  0  0  0  0  0  0  0  0
  -18.7856   13.3257   25.3757 C   0  0  0  0  0  0  0  0  0  0  0  0
  -18.5499   14.8061   25.4497 C   0  0  0  0  0  0  0  0  0  0  0  0
  -17.9573   15.1556   24.5981 H   0  0  0  0  0  0  0  0  0  0  0  0
  -18.0003   15.0651   26.3602 H   0  0  0  0  0  0  0  0  0  0  0  0
  -19.5004   15.3497   25.4318 H   0  0  0  0  0  0  0  0  0  0  0  0
  -18.2786   12.5421   24.3265 C   0  0  0  0  0  0  0  0  0  0  0  0
  -17.7038   12.9327   23.5274 H   0  0  0  0  0  0  0  0  0  0  0  0
  -18.6010   11.2211   24.4400 C   0  0  0  0  0  0  0  0  0  0  0  0
  -18.3392   10.4344   23.7810 H   0  0  0  0  0  0  0  0  0  0  0  0
  -19.5405   10.9111   25.8484 S   0  0  0  0  0  0  0  0  0  0  0  0
  1  2  1  0
  2  3  2  0
  2  4  1  0
  4  5  2  0
  4 14  1  0
  5  6  1  0
  5 10  1  0
  6  7  1  0
  6  8  1  0
  6  9  1  0
 10 11  1  0
 10 12  2  0
 12 13  1  0
 12 14  1  0
M  END
$$$$
