
     RDKit          3D

 35 37  0  0  0  0  0  0  0  0999 V2000
  -26.1551   11.9010   29.4723 F   0  0  0  0  0  0  0  0  0  0  0  0
  -24.9351   12.1454   28.9735 C   0  0  0  0  0  0  0  0  0  0  0  0
  -23.8227   11.8958   29.7676 C   0  0  0  0  0  0  0  0  0  0  0  0
  -23.9452   11.5181   30.7492 H   0  0  0  0  0  0  0  0  0  0  0  0
  -22.5555   12.1502   29.2517 C   0  0  0  0  0  0  0  0  0  0  0  0
  -21.7088   11.9616   29.8518 H   0  0  0  0  0  0  0  0  0  0  0  0
  -22.4170   12.6621   27.9490 C   0  0  0  0  0  0  0  0  0  0  0  0
  -21.1555   12.9346   27.4351 N   0  0  0  0  0  0  0  0  0  0  0  0
  -20.5766   14.2865   27.4291 C   0  0  0  0  0  0  0  0  0  0  0  0
  -21.2702   15.0557   27.7830 H   0  0  0  0  0  0  0  0  0  0  0  0
  -19.7273   14.2936   28.1237 H   0  0  0  0  0  0  0  0  0  0  0  0
  -20.0788   14.6488   26.0208 C   0  0  0  0  0  0  0  0  0  0  0  0
  -19.5812   15.6210   26.0447 H   0  0  0  0  0  0  0  0  0  0  0  0
  -20.9282   14.7319   25.3329 H   0  0  0  0  0  0  0  0  0  0  0  0
  -19.1975   13.6019   25.4861 N   0  0  0  0  0  0  0  0  0  0  0  0
  -17.9262   13.8137   25.0070 C   0  0  0  0  0  0  0  0  0  0  0  0
  -17.2966   12.8645   24.5775 O   0  0  0  0  0  0  0  0  0  0  0  0
  -17.3585   15.1806   25.0199 C   0  0  0  0  0  0  0  0  0  0  0  0
  -17.5038   15.7276   24.0934 H   0  0  0  0  0  0  0  0  0  0  0  0
  -16.0519   15.4519   25.7319 C   0  0  0  0  0  0  0  0  0  0  0  0
  -15.5653   14.6296   26.2444 H   0  0  0  0  0  0  0  0  0  0  0  0
  -15.3672   16.1591   25.2799 H   0  0  0  0  0  0  0  0  0  0  0  0
  -17.3332   15.9769   26.3039 C   0  0  0  0  0  0  0  0  0  0  0  0
  -17.7047   15.5122   27.2107 H   0  0  0  0  0  0  0  0  0  0  0  0
  -17.5173   17.0429   26.2429 H   0  0  0  0  0  0  0  0  0  0  0  0
  -19.7913   12.2589   25.4930 C   0  0  0  0  0  0  0  0  0  0  0  0
  -20.6289   12.2806   24.7864 H   0  0  0  0  0  0  0  0  0  0  0  0
  -19.0827   11.5040   25.1379 H   0  0  0  0  0  0  0  0  0  0  0  0
  -20.2966   11.8693   26.8933 C   0  0  0  0  0  0  0  0  0  0  0  0
  -19.4471   11.7223   27.5705 H   0  0  0  0  0  0  0  0  0  0  0  0
  -20.8222   10.9122   26.8034 H   0  0  0  0  0  0  0  0  0  0  0  0
  -23.5581   12.8846   27.1609 C   0  0  0  0  0  0  0  0  0  0  0  0
  -23.4578   13.2249   26.1644 H   0  0  0  0  0  0  0  0  0  0  0  0
  -24.8251   12.6327   27.6786 C   0  0  0  0  0  0  0  0  0  0  0  0
  -25.6935   12.7987   27.0972 H   0  0  0  0  0  0  0  0  0  0  0  0
  1  2  1  0
  2  3  1  0
  2 34  2  0
  3  4  1  0
  3  5  2  0
  5  6  1  0
  5  7  1  0
  7  8  1  0
  7 32  2  0
  8  9  1  0
  8 29  1  0
  9 10  1  0
  9 11  1  0
  9 12  1  0
 12 13  1  0
 12 14  1  0
 12 15  1  0
 15 16  1  0
 15 26  1  0
 16 17  2  0
 16 18  1  0
 18 19  1  0
 18 20  1  0
 18 23  1  0
 20 21  1  0
 20 22  1  0
 20 23  1  0
 23 24  1  0
 23 25  1  0
 26 27  1  0
 26 28  1  0
 26 29  1  0
 29 30  1  0
 29 31  1  0
 32 33  1  0
 32 34  1  0
 34 35  1  0
M  END
$$$$
