
     RDKit          3D

 16 16  0  0  0  0  0  0  0  0999 V2000
  -17.9116   15.0086   27.2751 O   0  0  0  0  0  0  0  0  0  0  0  0
  -19.1668   14.6017   26.7303 C   0  0  0  0  0  0  0  0  0  0  0  0
  -19.9244   14.5859   27.5235 H   0  0  0  0  0  0  0  0  0  0  0  0
  -19.4850   15.3045   25.9519 H   0  0  0  0  0  0  0  0  0  0  0  0
  -18.9931   13.2319   26.1682 C   0  0  0  0  0  0  0  0  0  0  0  0
  -18.6107   12.9992   24.5148 S   0  0  0  0  0  0  0  0  0  0  0  0
  -18.6516   11.3314   24.8469 C   0  0  0  0  0  0  0  0  0  0  0  0
  -18.4065   10.4398   23.8720 N   0  0  0  0  0  0  0  0  0  0  0  0
  -18.1901   10.7210   22.9239 H   0  0  0  0  0  0  0  0  0  0  0  0
  -18.4315    9.4468   24.0701 H   0  0  0  0  0  0  0  0  0  0  0  0
  -18.9320   11.0049   26.0697 N   0  0  0  0  0  0  0  0  0  0  0  0
  -19.1319   12.1301   26.8422 N   0  0  0  0  0  0  0  0  0  0  0  0
  -17.0750   15.5891   26.2845 C   0  0  0  0  0  0  0  0  0  0  0  0
  -16.1325   15.8798   26.7570 H   0  0  0  0  0  0  0  0  0  0  0  0
  -17.5440   16.4829   25.8624 H   0  0  0  0  0  0  0  0  0  0  0  0
  -16.8598   14.8653   25.4926 H   0  0  0  0  0  0  0  0  0  0  0  0
  1  2  1  0
  1 13  1  0
  2  3  1  0
  2  4  1  0
  2  5  1  0
  5  6  1  0
  5 12  2  0
  6  7  1  0
  7  8  1  0
  7 11  2  0
  8  9  1  0
  8 10  1  0
 11 12  1  0
 13 14  1  0
 13 15  1  0
 13 16  1  0
M  END
$$$$
