
     RDKit          3D

 29 31  0  0  0  0  0  0  0  0999 V2000
  -24.1826   13.8667   30.7360 O   0  0  0  0  0  0  0  0  0  0  0  0
  -24.3225   12.6650   30.6906 C   0  0  0  0  0  0  0  0  0  0  0  0
  -23.6002   11.8910   29.8345 N   0  0  0  0  0  0  0  0  0  0  0  0
  -23.7994   10.8872   29.8477 H   0  0  0  0  0  0  0  0  0  0  0  0
  -22.6287   12.2481   28.9290 C   0  0  0  0  0  0  0  0  0  0  0  0
  -22.1238   13.8976   28.7248 S   0  0  0  0  0  0  0  0  0  0  0  0
  -21.0066   13.3510   27.5231 C   0  0  0  0  0  0  0  0  0  0  0  0
  -21.1134   11.9681   27.3818 C   0  0  0  0  0  0  0  0  0  0  0  0
  -22.0508   11.3474   28.1981 N   0  0  0  0  0  0  0  0  0  0  0  0
  -20.2884   11.3150   26.4512 C   0  0  0  0  0  0  0  0  0  0  0  0
  -20.3657   10.2654   26.3389 H   0  0  0  0  0  0  0  0  0  0  0  0
  -19.3862   12.0451   25.6907 C   0  0  0  0  0  0  0  0  0  0  0  0
  -18.7660   11.5490   24.9909 H   0  0  0  0  0  0  0  0  0  0  0  0
  -19.2990   13.4457   25.8562 C   0  0  0  0  0  0  0  0  0  0  0  0
  -18.4465   14.2696   25.1642 O   0  0  0  0  0  0  0  0  0  0  0  0
  -17.5321   15.0502   25.9252 C   0  0  0  0  0  0  0  0  0  0  0  0
  -16.8432   14.4123   26.4891 H   0  0  0  0  0  0  0  0  0  0  0  0
  -16.9367   15.6442   25.2254 H   0  0  0  0  0  0  0  0  0  0  0  0
  -18.0605   15.7454   26.5857 H   0  0  0  0  0  0  0  0  0  0  0  0
  -20.1017   14.1080   26.7667 C   0  0  0  0  0  0  0  0  0  0  0  0
  -20.0356   15.1577   26.8876 H   0  0  0  0  0  0  0  0  0  0  0  0
  -25.2696   11.9447   31.5695 C   0  0  0  0  0  0  0  0  0  0  0  0
  -26.2745   11.8782   31.1614 H   0  0  0  0  0  0  0  0  0  0  0  0
  -25.1359   12.0035   33.0729 C   0  0  0  0  0  0  0  0  0  0  0  0
  -24.3131   12.5558   33.5130 H   0  0  0  0  0  0  0  0  0  0  0  0
  -26.0450   12.0201   33.6616 H   0  0  0  0  0  0  0  0  0  0  0  0
  -24.7992   10.7368   32.3430 C   0  0  0  0  0  0  0  0  0  0  0  0
  -25.4795    9.8988   32.4341 H   0  0  0  0  0  0  0  0  0  0  0  0
  -23.7545   10.4530   32.2698 H   0  0  0  0  0  0  0  0  0  0  0  0
  1  2  2  0
  2  3  1  0
  2 22  1  0
  3  4  1  0
  3  5  1  0
  5  6  1  0
  5  9  2  0
  6  7  1  0
  7  8  1  0
  7 20  2  0
  8  9  1  0
  8 10  2  0
 10 11  1  0
 10 12  1  0
 12 13  1  0
 12 14  2  0
 14 15  1  0
 14 20  1  0
 15 16  1  0
 16 17  1  0
 16 18  1  0
 16 19  1  0
 20 21  1  0
 22 23  1  0
 22 24  1  0
 22 27  1  0
 24 25  1  0
 24 26  1  0
 24 27  1  0
 27 28  1  0
 27 29  1  0
M  END
$$$$
