
     RDKit          3D

 32 33  0  0  0  0  0  0  0  0999 V2000
  -15.6186   16.0880   27.8903 O   0  0  0  0  0  0  0  0  0  0  0  0
  -15.8306   16.8015   26.9296 C   0  0  0  0  0  0  0  0  0  0  0  0
  -16.7887   16.4731   26.0129 N   0  0  0  0  0  0  0  0  0  0  0  0
  -16.8770   17.1445   25.2438 H   0  0  0  0  0  0  0  0  0  0  0  0
  -17.6258   15.3677   26.0011 C   0  0  0  0  0  0  0  0  0  0  0  0
  -17.7884   14.4463   26.9729 C   0  0  0  0  0  0  0  0  0  0  0  0
  -17.3492   14.3464   27.9304 H   0  0  0  0  0  0  0  0  0  0  0  0
  -18.7042   13.5782   26.4803 N   0  0  0  0  0  0  0  0  0  0  0  0
  -19.2335   12.3925   27.1202 C   0  0  0  0  0  0  0  0  0  0  0  0
  -19.1147   11.5582   26.4205 H   0  0  0  0  0  0  0  0  0  0  0  0
  -18.6165   12.1842   28.0013 H   0  0  0  0  0  0  0  0  0  0  0  0
  -20.6883   12.5565   27.5228 C   0  0  0  0  0  0  0  0  0  0  0  0
  -21.3208   12.7516   26.6504 H   0  0  0  0  0  0  0  0  0  0  0  0
  -20.8133   13.3932   28.2188 H   0  0  0  0  0  0  0  0  0  0  0  0
  -21.0521   11.6481   28.0120 H   0  0  0  0  0  0  0  0  0  0  0  0
  -19.1271   13.9275   25.2298 N   0  0  0  0  0  0  0  0  0  0  0  0
  -18.4629   15.0182   24.9454 C   0  0  0  0  0  0  0  0  0  0  0  0
  -18.5664   15.5449   24.0326 H   0  0  0  0  0  0  0  0  0  0  0  0
  -15.0464   18.0798   26.6732 C   0  0  0  0  0  0  0  0  0  0  0  0
  -14.2758   18.1415   27.4519 H   0  0  0  0  0  0  0  0  0  0  0  0
  -14.3808   18.0950   25.2907 C   0  0  0  0  0  0  0  0  0  0  0  0
  -13.3165   17.8449   25.3557 H   0  0  0  0  0  0  0  0  0  0  0  0
  -14.8375   17.3738   24.6043 H   0  0  0  0  0  0  0  0  0  0  0  0
  -14.5795   19.5110   24.7690 C   0  0  0  0  0  0  0  0  0  0  0  0
  -13.7987   20.1716   25.1639 H   0  0  0  0  0  0  0  0  0  0  0  0
  -14.5481   19.5600   23.6770 H   0  0  0  0  0  0  0  0  0  0  0  0
  -15.9340   19.9087   25.3281 C   0  0  0  0  0  0  0  0  0  0  0  0
  -16.7368   19.4467   24.7433 H   0  0  0  0  0  0  0  0  0  0  0  0
  -16.0861   20.9916   25.3173 H   0  0  0  0  0  0  0  0  0  0  0  0
  -15.9152   19.3446   26.7435 C   0  0  0  0  0  0  0  0  0  0  0  0
  -16.9267   19.1696   27.1233 H   0  0  0  0  0  0  0  0  0  0  0  0
  -15.4383   20.0712   27.4141 H   0  0  0  0  0  0  0  0  0  0  0  0
  1  2  2  0
  2  3  1  0
  2 19  1  0
  3  4  1  0
  3  5  1  0
  5  6  2  0
  5 17  1  0
  6  7  1  0
  6  8  1  0
  8  9  1  0
  8 16  1  0
  9 10  1  0
  9 11  1  0
  9 12  1  0
 12 13  1  0
 12 14  1  0
 12 15  1  0
 16 17  2  0
 17 18  1  0
 19 20  1  0
 19 21  1  0
 19 30  1  0
 21 22  1  0
 21 23  1  0
 21 24  1  0
 24 25  1  0
 24 26  1  0
 24 27  1  0
 27 28  1  0
 27 29  1  0
 27 30  1  0
 30 31  1  0
 30 32  1  0
M  END
$$$$
