
     RDKit          3D

 18 18  0  0  0  0  0  0  0  0999 V2000
  -19.4837   13.2114   27.0567 O   0  0  0  0  0  0  0  0  0  0  0  0
  -18.9077   12.9647   26.0072 C   0  0  0  0  0  0  0  0  0  0  0  0
  -18.2941   13.9791   25.3419 N   0  0  0  0  0  0  0  0  0  0  0  0
  -17.7477   13.7493   24.5051 H   0  0  0  0  0  0  0  0  0  0  0  0
  -18.3546   15.3582   25.7840 C   0  0  0  0  0  0  0  0  0  0  0  0
  -18.3785   16.0053   24.9000 H   0  0  0  0  0  0  0  0  0  0  0  0
  -19.2950   15.4957   26.3282 H   0  0  0  0  0  0  0  0  0  0  0  0
  -17.1759   15.7159   26.6676 C   0  0  0  0  0  0  0  0  0  0  0  0
  -16.2305   15.5810   26.1318 H   0  0  0  0  0  0  0  0  0  0  0  0
  -17.1478   15.0811   27.5595 H   0  0  0  0  0  0  0  0  0  0  0  0
  -17.2424   16.7592   26.9906 H   0  0  0  0  0  0  0  0  0  0  0  0
  -18.8213   11.6468   25.4492 C   0  0  0  0  0  0  0  0  0  0  0  0
  -17.8658   11.3075   24.5849 N   0  0  0  0  0  0  0  0  0  0  0  0
  -17.1162   11.9390   24.2398 H   0  0  0  0  0  0  0  0  0  0  0  0
  -17.9960   10.0312   24.2102 N   0  0  0  0  0  0  0  0  0  0  0  0
  -19.0437    9.5370   24.8388 N   0  0  0  0  0  0  0  0  0  0  0  0
  -19.5522   10.5184   25.5988 C   0  0  0  0  0  0  0  0  0  0  0  0
  -20.4046   10.3956   26.2169 H   0  0  0  0  0  0  0  0  0  0  0  0
  1  2  2  0
  2  3  1  0
  2 12  1  0
  3  4  1  0
  3  5  1  0
  5  6  1  0
  5  7  1  0
  5  8  1  0
  8  9  1  0
  8 10  1  0
  8 11  1  0
 12 13  1  0
 12 17  2  0
 13 14  1  0
 13 15  1  0
 15 16  2  0
 16 17  1  0
 17 18  1  0
M  END
$$$$
