
     RDKit          3D

 23 24  0  0  0  0  0  0  0  0999 V2000
  -23.2581   16.1771   31.4744 N   0  0  0  0  0  0  0  0  0  0  0  0
  -22.5751   15.9537   30.7345 H   0  0  0  0  0  0  0  0  0  0  0  0
  -23.5395   17.1467   31.2712 H   0  0  0  0  0  0  0  0  0  0  0  0
  -24.4555   15.2963   31.2785 C   0  0  0  0  0  0  0  0  0  0  0  0
  -25.1314   15.4901   32.1166 H   0  0  0  0  0  0  0  0  0  0  0  0
  -24.9261   15.6069   30.3395 H   0  0  0  0  0  0  0  0  0  0  0  0
  -24.0623   13.8699   31.2282 C   0  0  0  0  0  0  0  0  0  0  0  0
  -23.6715   13.2072   30.1316 N   0  0  0  0  0  0  0  0  0  0  0  0
  -23.4107   11.9381   30.5209 C   0  0  0  0  0  0  0  0  0  0  0  0
  -23.6319   11.8399   31.8118 N   0  0  0  0  0  0  0  0  0  0  0  0
  -24.0374   13.0598   32.2475 N   0  0  0  0  0  0  0  0  0  0  0  0
  -22.9727   10.9949   29.5437 C   0  0  0  0  0  0  0  0  0  0  0  0
  -22.7700    9.9999   29.8470 H   0  0  0  0  0  0  0  0  0  0  0  0
  -22.8234   11.3836   28.2433 C   0  0  0  0  0  0  0  0  0  0  0  0
  -22.4993   10.6937   27.5051 H   0  0  0  0  0  0  0  0  0  0  0  0
  -23.1058   12.7350   27.8697 C   0  0  0  0  0  0  0  0  0  0  0  0
  -22.9824   13.0207   26.8543 H   0  0  0  0  0  0  0  0  0  0  0  0
  -23.5267   13.6420   28.8024 C   0  0  0  0  0  0  0  0  0  0  0  0
  -23.7560   14.6576   28.6120 H   0  0  0  0  0  0  0  0  0  0  0  0
  -22.6186   16.0920   32.8083 C   0  0  0  0  0  0  0  0  0  0  0  0
  -22.2843   15.0644   32.9650 H   0  0  0  0  0  0  0  0  0  0  0  0
  -23.3524   16.3907   33.5605 H   0  0  0  0  0  0  0  0  0  0  0  0
  -21.7681   16.7776   32.8093 H   0  0  0  0  0  0  0  0  0  0  0  0
  1  2  1  0
  1  3  1  0
  1  4  1  0
  1 20  1  0
  4  5  1  0
  4  6  1  0
  4  7  1  0
  7  8  1  0
  7 11  2  0
  8  9  1  0
  8 18  1  0
  9 10  2  0
  9 12  1  0
 10 11  1  0
 12 13  1  0
 12 14  2  0
 14 15  1  0
 14 16  1  0
 16 17  1  0
 16 18  2  0
 18 19  1  0
 20 21  1  0
 20 22  1  0
 20 23  1  0
M  END
$$$$
