
     RDKit          3D

 35 37  0  0  0  0  0  0  0  0999 V2000
  -27.2699   12.0603   33.2624 F   0  0  0  0  0  0  0  0  0  0  0  0
  -26.3935   12.0374   32.2483 C   0  0  0  0  0  0  0  0  0  0  0  0
  -25.3105   11.1698   32.3164 C   0  0  0  0  0  0  0  0  0  0  0  0
  -25.1871   10.5399   33.1585 H   0  0  0  0  0  0  0  0  0  0  0  0
  -24.3990   11.1457   31.2650 C   0  0  0  0  0  0  0  0  0  0  0  0
  -23.5758   10.4880   31.3134 H   0  0  0  0  0  0  0  0  0  0  0  0
  -24.5769   11.9991   30.1612 C   0  0  0  0  0  0  0  0  0  0  0  0
  -23.6608   11.9920   29.1169 N   0  0  0  0  0  0  0  0  0  0  0  0
  -22.2068   11.9862   29.3375 C   0  0  0  0  0  0  0  0  0  0  0  0
  -21.9288   12.0788   30.3922 H   0  0  0  0  0  0  0  0  0  0  0  0
  -21.8175   11.0178   28.9995 H   0  0  0  0  0  0  0  0  0  0  0  0
  -21.5386   13.1084   28.5272 C   0  0  0  0  0  0  0  0  0  0  0  0
  -20.4534   13.0458   28.6366 H   0  0  0  0  0  0  0  0  0  0  0  0
  -21.8513   14.0860   28.9123 H   0  0  0  0  0  0  0  0  0  0  0  0
  -21.9451   13.0557   27.1163 N   0  0  0  0  0  0  0  0  0  0  0  0
  -21.0785   13.0033   26.0501 C   0  0  0  0  0  0  0  0  0  0  0  0
  -21.5377   12.9748   24.9231 O   0  0  0  0  0  0  0  0  0  0  0  0
  -19.6187   12.9876   26.2947 C   0  0  0  0  0  0  0  0  0  0  0  0
  -19.2595   13.8313   26.8759 H   0  0  0  0  0  0  0  0  0  0  0  0
  -18.6754   12.4957   25.2196 C   0  0  0  0  0  0  0  0  0  0  0  0
  -19.0994   12.1384   24.2877 H   0  0  0  0  0  0  0  0  0  0  0  0
  -17.7266   13.0060   25.1073 H   0  0  0  0  0  0  0  0  0  0  0  0
  -18.8924   11.6719   26.4520 C   0  0  0  0  0  0  0  0  0  0  0  0
  -19.4562   10.7514   26.3466 H   0  0  0  0  0  0  0  0  0  0  0  0
  -18.0882   11.6203   27.1762 H   0  0  0  0  0  0  0  0  0  0  0  0
  -23.3991   13.0681   26.9118 C   0  0  0  0  0  0  0  0  0  0  0  0
  -23.7569   14.0475   27.2498 H   0  0  0  0  0  0  0  0  0  0  0  0
  -23.6570   12.9729   25.8523 H   0  0  0  0  0  0  0  0  0  0  0  0
  -24.0940   11.9517   27.7109 C   0  0  0  0  0  0  0  0  0  0  0  0
  -23.8353   10.9732   27.2899 H   0  0  0  0  0  0  0  0  0  0  0  0
  -25.1757   12.0875   27.6016 H   0  0  0  0  0  0  0  0  0  0  0  0
  -25.6928   12.8505   30.1092 C   0  0  0  0  0  0  0  0  0  0  0  0
  -25.8569   13.4603   29.2606 H   0  0  0  0  0  0  0  0  0  0  0  0
  -26.6021   12.8761   31.1624 C   0  0  0  0  0  0  0  0  0  0  0  0
  -27.4454   13.5149   31.1378 H   0  0  0  0  0  0  0  0  0  0  0  0
  1  2  1  0
  2  3  1  0
  2 34  2  0
  3  4  1  0
  3  5  2  0
  5  6  1  0
  5  7  1  0
  7  8  1  0
  7 32  2  0
  8  9  1  0
  8 29  1  0
  9 10  1  0
  9 11  1  0
  9 12  1  0
 12 13  1  0
 12 14  1  0
 12 15  1  0
 15 16  1  0
 15 26  1  0
 16 17  2  0
 16 18  1  0
 18 19  1  0
 18 20  1  0
 18 23  1  0
 20 21  1  0
 20 22  1  0
 20 23  1  0
 23 24  1  0
 23 25  1  0
 26 27  1  0
 26 28  1  0
 26 29  1  0
 29 30  1  0
 29 31  1  0
 32 33  1  0
 32 34  1  0
 34 35  1  0
M  END
$$$$
