
     RDKit          3D

 20 20  0  0  0  0  0  0  0  0999 V2000
  -19.7537   10.7726   26.1806 O   0  0  0  0  0  0  0  0  0  0  0  0
  -19.1921   11.7759   25.6988 C   0  0  0  0  0  0  0  0  0  0  0  0
  -19.2018   12.9790   26.4306 N   0  0  0  0  0  0  0  0  0  0  0  0
  -19.8652   13.0193   27.7303 C   0  0  0  0  0  0  0  0  0  0  0  0
  -19.1411   13.3091   28.4977 H   0  0  0  0  0  0  0  0  0  0  0  0
  -20.2843   12.0497   28.0135 H   0  0  0  0  0  0  0  0  0  0  0  0
  -20.6854   13.7435   27.6936 H   0  0  0  0  0  0  0  0  0  0  0  0
  -18.5877   14.1438   25.9164 C   0  0  0  0  0  0  0  0  0  0  0  0
  -18.6362   15.4216   26.7070 C   0  0  0  0  0  0  0  0  0  0  0  0
  -19.6716   15.7406   26.8654 H   0  0  0  0  0  0  0  0  0  0  0  0
  -18.1223   16.2393   26.1901 H   0  0  0  0  0  0  0  0  0  0  0  0
  -18.1483   15.2980   27.6784 H   0  0  0  0  0  0  0  0  0  0  0  0
  -17.9446   14.0908   24.7108 C   0  0  0  0  0  0  0  0  0  0  0  0
  -17.4772   14.9587   24.3227 H   0  0  0  0  0  0  0  0  0  0  0  0
  -17.8899   12.8944   23.9460 C   0  0  0  0  0  0  0  0  0  0  0  0
  -17.3899   12.8857   23.0121 H   0  0  0  0  0  0  0  0  0  0  0  0
  -18.4989   11.7693   24.4170 C   0  0  0  0  0  0  0  0  0  0  0  0
  -18.4975   10.5806   23.7300 N   0  0  0  0  0  0  0  0  0  0  0  0
  -18.0394   10.4900   22.8348 H   0  0  0  0  0  0  0  0  0  0  0  0
  -18.9760    9.7916   24.1585 H   0  0  0  0  0  0  0  0  0  0  0  0
  1  2  2  0
  2  3  1  0
  2 17  1  0
  3  4  1  0
  3  8  1  0
  4  5  1  0
  4  6  1  0
  4  7  1  0
  8  9  1  0
  8 13  2  0
  9 10  1  0
  9 11  1  0
  9 12  1  0
 13 14  1  0
 13 15  1  0
 15 16  1  0
 15 17  2  0
 17 18  1  0
 18 19  1  0
 18 20  1  0
M  END
$$$$
