
     RDKit          3D

 28 29  0  0  0  0  0  0  0  0999 V2000
  -22.9533   10.9971   34.0954 O   0  0  0  0  0  0  0  0  0  0  0  0
  -22.9189   10.5918   32.9453 C   0  0  0  0  0  0  0  0  0  0  0  0
  -22.0742    9.6335   32.6206 N   0  0  0  0  0  0  0  0  0  0  0  0
  -21.4885    9.2806   33.3593 H   0  0  0  0  0  0  0  0  0  0  0  0
  -22.0192    9.2817   31.6809 H   0  0  0  0  0  0  0  0  0  0  0  0
  -23.7909   11.1115   31.8334 C   0  0  0  0  0  0  0  0  0  0  0  0
  -24.0300   10.2816   31.1592 H   0  0  0  0  0  0  0  0  0  0  0  0
  -24.7334   11.4623   32.2708 H   0  0  0  0  0  0  0  0  0  0  0  0
  -23.0967   12.2349   31.0750 C   0  0  0  0  0  0  0  0  0  0  0  0
  -22.0986   11.9299   30.7419 H   0  0  0  0  0  0  0  0  0  0  0  0
  -22.9540   13.1173   31.7109 H   0  0  0  0  0  0  0  0  0  0  0  0
  -23.8615   12.6499   29.9142 N   0  0  0  0  0  0  0  0  0  0  0  0
  -23.7114   12.2011   28.6223 C   0  0  0  0  0  0  0  0  0  0  0  0
  -22.6951   11.1931   28.2199 C   0  0  0  0  0  0  0  0  0  0  0  0
  -22.8242   10.9195   27.1685 H   0  0  0  0  0  0  0  0  0  0  0  0
  -22.7894   10.2822   28.8176 H   0  0  0  0  0  0  0  0  0  0  0  0
  -21.6848   11.5957   28.3408 H   0  0  0  0  0  0  0  0  0  0  0  0
  -24.5555   12.7597   27.8202 N   0  0  0  0  0  0  0  0  0  0  0  0
  -25.3009   13.6167   28.5991 C   0  0  0  0  0  0  0  0  0  0  0  0
  -24.8766   13.5600   29.9112 C   0  0  0  0  0  0  0  0  0  0  0  0
  -25.4555   14.3281   30.9319 C   0  0  0  0  0  0  0  0  0  0  0  0
  -25.1079   14.2690   31.9310 H   0  0  0  0  0  0  0  0  0  0  0  0
  -26.5003   15.1718   30.5872 C   0  0  0  0  0  0  0  0  0  0  0  0
  -26.9655   15.7690   31.3274 H   0  0  0  0  0  0  0  0  0  0  0  0
  -26.9513   15.2423   29.2494 C   0  0  0  0  0  0  0  0  0  0  0  0
  -27.7518   15.8935   29.0026 H   0  0  0  0  0  0  0  0  0  0  0  0
  -26.3577   14.4718   28.2589 C   0  0  0  0  0  0  0  0  0  0  0  0
  -26.6864   14.5185   27.2552 H   0  0  0  0  0  0  0  0  0  0  0  0
  1  2  2  0
  2  3  1  0
  2  6  1  0
  3  4  1  0
  3  5  1  0
  6  7  1  0
  6  8  1  0
  6  9  1  0
  9 10  1  0
  9 11  1  0
  9 12  1  0
 12 13  1  0
 12 20  1  0
 13 14  1  0
 13 18  2  0
 14 15  1  0
 14 16  1  0
 14 17  1  0
 18 19  1  0
 19 20  1  0
 19 27  2  0
 20 21  2  0
 21 22  1  0
 21 23  1  0
 23 24  1  0
 23 25  2  0
 25 26  1  0
 25 27  1  0
 27 28  1  0
M  END
$$$$
