
     RDKit          3D

 29 30  0  0  0  0  0  0  0  0999 V2000
  -18.8013   12.4688   27.5671 C   0  0  0  0  0  0  0  0  0  0  0  0
  -18.7681   12.0015   28.5575 H   0  0  0  0  0  0  0  0  0  0  0  0
  -18.9249   13.5502   27.7017 H   0  0  0  0  0  0  0  0  0  0  0  0
  -17.8306   12.3224   27.0808 H   0  0  0  0  0  0  0  0  0  0  0  0
  -19.9231   11.8893   26.7115 C   0  0  0  0  0  0  0  0  0  0  0  0
  -19.8967   12.5207   25.4310 O   0  0  0  0  0  0  0  0  0  0  0  0
  -20.6022   12.1220   24.8966 H   0  0  0  0  0  0  0  0  0  0  0  0
  -21.2593   12.0468   27.3653 C   0  0  0  0  0  0  0  0  0  0  0  0
  -22.2360   11.0649   27.4936 C   0  0  0  0  0  0  0  0  0  0  0  0
  -22.1634   10.0703   27.1374 H   0  0  0  0  0  0  0  0  0  0  0  0
  -23.2850   11.5187   28.1218 N   0  0  0  0  0  0  0  0  0  0  0  0
  -22.9894   12.8193   28.4098 N   0  0  0  0  0  0  0  0  0  0  0  0
  -23.9286   13.6611   29.1117 C   0  0  0  0  0  0  0  0  0  0  0  0
  -23.3652   14.5124   29.5160 H   0  0  0  0  0  0  0  0  0  0  0  0
  -25.0731   14.1883   28.2484 C   0  0  0  0  0  0  0  0  0  0  0  0
  -24.7514   14.9890   27.5741 H   0  0  0  0  0  0  0  0  0  0  0  0
  -25.5098   13.3945   27.6299 H   0  0  0  0  0  0  0  0  0  0  0  0
  -26.1062   14.6717   29.2614 C   0  0  0  0  0  0  0  0  0  0  0  0
  -25.9791   15.7435   29.4522 H   0  0  0  0  0  0  0  0  0  0  0  0
  -27.1256   14.5246   28.8909 H   0  0  0  0  0  0  0  0  0  0  0  0
  -25.8475   13.8837   30.5462 C   0  0  0  0  0  0  0  0  0  0  0  0
  -26.7277   13.3123   30.8571 H   0  0  0  0  0  0  0  0  0  0  0  0
  -25.6017   14.5746   31.3617 H   0  0  0  0  0  0  0  0  0  0  0  0
  -24.6650   12.9653   30.2551 C   0  0  0  0  0  0  0  0  0  0  0  0
  -25.0333   11.9766   29.9535 H   0  0  0  0  0  0  0  0  0  0  0  0
  -24.0280   12.8229   31.1343 H   0  0  0  0  0  0  0  0  0  0  0  0
  -21.7621   13.1541   27.9593 C   0  0  0  0  0  0  0  0  0  0  0  0
  -21.3490   14.1217   28.0840 H   0  0  0  0  0  0  0  0  0  0  0  0
  -19.7317   10.8226   26.5431 H   0  0  0  0  0  0  0  0  0  0  0  0
  1  2  1  0
  1  3  1  0
  1  4  1  0
  1  5  1  0
  5  6  1  0
  5  8  1  0
  5 29  1  0
  6  7  1  0
  8  9  1  0
  8 27  2  0
  9 10  1  0
  9 11  2  0
 11 12  1  0
 12 13  1  0
 12 27  1  0
 13 14  1  0
 13 15  1  0
 13 24  1  0
 15 16  1  0
 15 17  1  0
 15 18  1  0
 18 19  1  0
 18 20  1  0
 18 21  1  0
 21 22  1  0
 21 23  1  0
 21 24  1  0
 24 25  1  0
 24 26  1  0
 27 28  1  0
M  END
$$$$
