
     RDKit          3D

 23 24  0  0  0  0  0  0  0  0999 V2000
  -17.7838   14.7185   24.1150 C   0  0  0  0  0  0  0  0  0  0  0  0
  -18.7027   15.2605   24.3481 H   0  0  0  0  0  0  0  0  0  0  0  0
  -17.5614   14.8240   23.0501 H   0  0  0  0  0  0  0  0  0  0  0  0
  -16.9555   15.1048   24.7151 H   0  0  0  0  0  0  0  0  0  0  0  0
  -17.9493   13.3245   24.4220 N   0  0  0  0  0  0  0  0  0  0  0  0
  -17.1265   12.4186   23.8745 N   0  0  0  0  0  0  0  0  0  0  0  0
  -17.4767   11.2364   24.3266 N   0  0  0  0  0  0  0  0  0  0  0  0
  -18.5275   11.4226   25.1529 C   0  0  0  0  0  0  0  0  0  0  0  0
  -18.8398   12.7269   25.2121 C   0  0  0  0  0  0  0  0  0  0  0  0
  -19.9479   13.3382   25.9918 C   0  0  0  0  0  0  0  0  0  0  0  0
  -19.6181   14.2684   26.4656 H   0  0  0  0  0  0  0  0  0  0  0  0
  -20.7497   13.6056   25.2916 H   0  0  0  0  0  0  0  0  0  0  0  0
  -20.5072   12.3183   27.0145 C   0  0  0  0  0  0  0  0  0  0  0  0
  -19.7496   12.4108   28.3426 C   0  0  0  0  0  0  0  0  0  0  0  0
  -20.4038   12.2000   29.3886 O   0  0  0  0  0  0  0  0  0  0  0  0
  -18.5230   12.6504   28.3000 O   0  0  0  0  0  0  0  0  0  0  0  0
  -20.5826   10.8839   26.4305 C   0  0  0  0  0  0  0  0  0  0  0  0
  -20.9814   10.1802   27.1702 H   0  0  0  0  0  0  0  0  0  0  0  0
  -21.2996   10.8949   25.5975 H   0  0  0  0  0  0  0  0  0  0  0  0
  -19.2269   10.3596   25.9052 C   0  0  0  0  0  0  0  0  0  0  0  0
  -19.3951    9.4853   25.2664 H   0  0  0  0  0  0  0  0  0  0  0  0
  -18.5968   10.0369   26.7411 H   0  0  0  0  0  0  0  0  0  0  0  0
  -21.5320   12.6282   27.2636 H   0  0  0  0  0  0  0  0  0  0  0  0
  1  2  1  0
  1  3  1  0
  1  4  1  0
  1  5  1  0
  5  6  1  0
  5  9  1  0
  6  7  2  0
  7  8  1  0
  8  9  2  0
  8 20  1  0
  9 10  1  0
 10 11  1  0
 10 12  1  0
 10 13  1  0
 13 14  1  0
 13 17  1  0
 13 23  1  0
 14 15  1  0
 14 16  2  0
 17 18  1  0
 17 19  1  0
 17 20  1  0
 20 21  1  0
 20 22  1  0
M  END
$$$$
