
     RDKit          3D

 39 40  0  0  0  0  0  0  0  0999 V2000
  -22.0802   12.1434   29.8290 O   0  0  0  0  0  0  0  0  0  0  0  0
  -22.9295   12.1689   28.9438 C   0  0  0  0  0  0  0  0  0  0  0  0
  -22.5850   11.7199   27.5246 C   0  0  0  0  0  0  0  0  0  0  0  0
  -23.3000   10.9348   27.2513 H   0  0  0  0  0  0  0  0  0  0  0  0
  -22.7642   12.5377   26.8159 H   0  0  0  0  0  0  0  0  0  0  0  0
  -21.2821   11.1847   27.3614 O   0  0  0  0  0  0  0  0  0  0  0  0
  -20.3850   11.8558   26.5702 C   0  0  0  0  0  0  0  0  0  0  0  0
  -19.7082   11.3222   25.4742 C   0  0  0  0  0  0  0  0  0  0  0  0
  -19.8495   10.3150   25.1808 H   0  0  0  0  0  0  0  0  0  0  0  0
  -18.8295   12.1278   24.7567 C   0  0  0  0  0  0  0  0  0  0  0  0
  -18.3171   11.7276   23.9188 H   0  0  0  0  0  0  0  0  0  0  0  0
  -18.6171   13.4542   25.1337 C   0  0  0  0  0  0  0  0  0  0  0  0
  -17.6921   14.3286   24.3357 C   0  0  0  0  0  0  0  0  0  0  0  0
  -18.2510   14.8358   23.5431 H   0  0  0  0  0  0  0  0  0  0  0  0
  -17.2179   15.0811   24.9730 H   0  0  0  0  0  0  0  0  0  0  0  0
  -16.8911   13.7372   23.8807 H   0  0  0  0  0  0  0  0  0  0  0  0
  -19.2929   13.9728   26.2393 C   0  0  0  0  0  0  0  0  0  0  0  0
  -19.1332   14.9771   26.5353 H   0  0  0  0  0  0  0  0  0  0  0  0
  -20.1742   13.1739   26.9612 C   0  0  0  0  0  0  0  0  0  0  0  0
  -20.6816   13.5623   27.8062 H   0  0  0  0  0  0  0  0  0  0  0  0
  -24.1747   12.6236   29.2401 N   0  0  0  0  0  0  0  0  0  0  0  0
  -24.5417   12.9147   30.6336 C   0  0  0  0  0  0  0  0  0  0  0  0
  -25.2670   12.1478   30.9344 H   0  0  0  0  0  0  0  0  0  0  0  0
  -23.6837   12.8242   31.3063 H   0  0  0  0  0  0  0  0  0  0  0  0
  -25.1589   14.3073   30.7865 C   0  0  0  0  0  0  0  0  0  0  0  0
  -24.4413   15.0961   30.5376 H   0  0  0  0  0  0  0  0  0  0  0  0
  -25.5407   14.4545   31.8010 H   0  0  0  0  0  0  0  0  0  0  0  0
  -26.3349   14.4511   29.8328 N   0  0  0  0  0  0  0  0  0  0  0  0
  -27.0228   13.7242   30.0767 H   0  0  0  0  0  0  0  0  0  0  0  0
  -27.0280   15.7724   29.9961 C   0  0  0  0  0  0  0  0  0  0  0  0
  -27.8913   15.7869   29.3256 H   0  0  0  0  0  0  0  0  0  0  0  0
  -27.3606   15.8539   31.0347 H   0  0  0  0  0  0  0  0  0  0  0  0
  -26.3244   16.5705   29.7463 H   0  0  0  0  0  0  0  0  0  0  0  0
  -25.9029   14.2114   28.3965 C   0  0  0  0  0  0  0  0  0  0  0  0
  -25.1985   15.0083   28.1347 H   0  0  0  0  0  0  0  0  0  0  0  0
  -26.7954   14.2838   27.7674 H   0  0  0  0  0  0  0  0  0  0  0  0
  -25.2503   12.8276   28.2600 C   0  0  0  0  0  0  0  0  0  0  0  0
  -24.8893   12.7216   27.2359 H   0  0  0  0  0  0  0  0  0  0  0  0
  -25.9946   12.0406   28.4338 H   0  0  0  0  0  0  0  0  0  0  0  0
  1  2  2  0
  2  3  1  0
  2 21  1  0
  3  4  1  0
  3  5  1  0
  3  6  1  0
  6  7  1  0
  7  8  1  0
  7 19  2  0
  8  9  1  0
  8 10  2  0
 10 11  1  0
 10 12  1  0
 12 13  1  0
 12 17  2  0
 13 14  1  0
 13 15  1  0
 13 16  1  0
 17 18  1  0
 17 19  1  0
 19 20  1  0
 21 22  1  0
 21 37  1  0
 22 23  1  0
 22 24  1  0
 22 25  1  0
 25 26  1  0
 25 27  1  0
 25 28  1  0
 28 29  1  0
 28 30  1  0
 28 34  1  0
 30 31  1  0
 30 32  1  0
 30 33  1  0
 34 35  1  0
 34 36  1  0
 34 37  1  0
 37 38  1  0
 37 39  1  0
M  END
$$$$
