
     RDKit          3D

 29 30  0  0  0  0  0  0  0  0999 V2000
  -19.5558   15.2344   25.1969 O   0  0  0  0  0  0  0  0  0  0  0  0
  -18.7708   14.5981   25.8744 C   0  0  0  0  0  0  0  0  0  0  0  0
  -17.8549   15.2292   26.6713 N   0  0  0  0  0  0  0  0  0  0  0  0
  -17.2283   14.6074   27.1953 H   0  0  0  0  0  0  0  0  0  0  0  0
  -17.6755   16.5952   26.8466 C   0  0  0  0  0  0  0  0  0  0  0  0
  -18.4124   17.5967   26.3230 C   0  0  0  0  0  0  0  0  0  0  0  0
  -19.2588   17.5951   25.6899 H   0  0  0  0  0  0  0  0  0  0  0  0
  -17.8355   18.7327   26.7880 N   0  0  0  0  0  0  0  0  0  0  0  0
  -18.2329   20.0982   26.5225 C   0  0  0  0  0  0  0  0  0  0  0  0
  -18.7666   20.1081   25.5652 H   0  0  0  0  0  0  0  0  0  0  0  0
  -18.9401   20.3983   27.3033 H   0  0  0  0  0  0  0  0  0  0  0  0
  -17.0470   21.0452   26.4897 C   0  0  0  0  0  0  0  0  0  0  0  0
  -17.3826   22.0682   26.2944 H   0  0  0  0  0  0  0  0  0  0  0  0
  -16.5106   21.0368   27.4440 H   0  0  0  0  0  0  0  0  0  0  0  0
  -16.3374   20.7628   25.7049 H   0  0  0  0  0  0  0  0  0  0  0  0
  -16.7614   18.4740   27.5916 N   0  0  0  0  0  0  0  0  0  0  0  0
  -16.6717   17.1695   27.6195 C   0  0  0  0  0  0  0  0  0  0  0  0
  -15.9280   16.6468   28.1631 H   0  0  0  0  0  0  0  0  0  0  0  0
  -18.6948   13.0430   25.9242 C   0  0  0  0  0  0  0  0  0  0  0  0
  -17.7151   12.6617   25.5979 H   0  0  0  0  0  0  0  0  0  0  0  0
  -19.1383   12.3541   27.2442 C   0  0  0  0  0  0  0  0  0  0  0  0
  -19.8815   12.9148   27.8215 H   0  0  0  0  0  0  0  0  0  0  0  0
  -18.3283   12.0479   27.9124 H   0  0  0  0  0  0  0  0  0  0  0  0
  -19.7425   11.2305   26.3814 C   0  0  0  0  0  0  0  0  0  0  0  0
  -20.6890   10.8151   26.7354 H   0  0  0  0  0  0  0  0  0  0  0  0
  -19.0452   10.4104   26.1754 H   0  0  0  0  0  0  0  0  0  0  0  0
  -19.8456   12.2566   25.2371 C   0  0  0  0  0  0  0  0  0  0  0  0
  -20.8039   12.7888   25.2077 H   0  0  0  0  0  0  0  0  0  0  0  0
  -19.6244   11.8701   24.2390 H   0  0  0  0  0  0  0  0  0  0  0  0
  1  2  2  0
  2  3  1  0
  2 19  1  0
  3  4  1  0
  3  5  1  0
  5  6  2  0
  5 17  1  0
  6  7  1  0
  6  8  1  0
  8  9  1  0
  8 16  1  0
  9 10  1  0
  9 11  1  0
  9 12  1  0
 12 13  1  0
 12 14  1  0
 12 15  1  0
 16 17  2  0
 17 18  1  0
 19 20  1  0
 19 21  1  0
 19 27  1  0
 21 22  1  0
 21 23  1  0
 21 24  1  0
 24 25  1  0
 24 26  1  0
 24 27  1  0
 27 28  1  0
 27 29  1  0
M  END
$$$$
