
     RDKit          3D

 32 33  0  0  0  0  0  0  0  0999 V2000
  -19.3047   17.1101   27.6452 O   0  0  0  0  0  0  0  0  0  0  0  0
  -18.6065   17.3306   26.6752 C   0  0  0  0  0  0  0  0  0  0  0  0
  -18.3029   16.3342   25.7913 N   0  0  0  0  0  0  0  0  0  0  0  0
  -17.7047   16.6338   25.0151 H   0  0  0  0  0  0  0  0  0  0  0  0
  -18.6946   15.0045   25.8255 C   0  0  0  0  0  0  0  0  0  0  0  0
  -19.3886   14.3741   26.7955 C   0  0  0  0  0  0  0  0  0  0  0  0
  -19.7879   14.7172   27.7134 H   0  0  0  0  0  0  0  0  0  0  0  0
  -19.5120   13.0968   26.3617 N   0  0  0  0  0  0  0  0  0  0  0  0
  -20.1679   11.9940   27.0320 C   0  0  0  0  0  0  0  0  0  0  0  0
  -20.1754   11.1444   26.3408 H   0  0  0  0  0  0  0  0  0  0  0  0
  -19.5571   11.7184   27.8988 H   0  0  0  0  0  0  0  0  0  0  0  0
  -21.5783   12.3447   27.4716 C   0  0  0  0  0  0  0  0  0  0  0  0
  -22.2059   12.6093   26.6141 H   0  0  0  0  0  0  0  0  0  0  0  0
  -21.5768   13.1976   28.1592 H   0  0  0  0  0  0  0  0  0  0  0  0
  -22.0396   11.4946   27.9829 H   0  0  0  0  0  0  0  0  0  0  0  0
  -18.9211   12.9046   25.1458 N   0  0  0  0  0  0  0  0  0  0  0  0
  -18.4241   14.0722   24.8280 C   0  0  0  0  0  0  0  0  0  0  0  0
  -17.8947   14.2579   23.9297 H   0  0  0  0  0  0  0  0  0  0  0  0
  -18.0160   18.7034   26.3895 C   0  0  0  0  0  0  0  0  0  0  0  0
  -18.5043   19.0764   25.4804 H   0  0  0  0  0  0  0  0  0  0  0  0
  -18.2459   19.6939   27.5385 C   0  0  0  0  0  0  0  0  0  0  0  0
  -19.0796   20.3708   27.3233 H   0  0  0  0  0  0  0  0  0  0  0  0
  -18.4807   19.1868   28.4806 H   0  0  0  0  0  0  0  0  0  0  0  0
  -16.9379   20.4613   27.6701 C   0  0  0  0  0  0  0  0  0  0  0  0
  -16.9108   21.2871   26.9495 H   0  0  0  0  0  0  0  0  0  0  0  0
  -16.7990   20.8774   28.6718 H   0  0  0  0  0  0  0  0  0  0  0  0
  -15.8827   19.4268   27.3210 C   0  0  0  0  0  0  0  0  0  0  0  0
  -15.7171   18.7523   28.1681 H   0  0  0  0  0  0  0  0  0  0  0  0
  -14.9244   19.8834   27.0583 H   0  0  0  0  0  0  0  0  0  0  0  0
  -16.4989   18.6695   26.1511 C   0  0  0  0  0  0  0  0  0  0  0  0
  -16.0851   17.6605   26.0586 H   0  0  0  0  0  0  0  0  0  0  0  0
  -16.2700   19.2007   25.2180 H   0  0  0  0  0  0  0  0  0  0  0  0
  1  2  2  0
  2  3  1  0
  2 19  1  0
  3  4  1  0
  3  5  1  0
  5  6  2  0
  5 17  1  0
  6  7  1  0
  6  8  1  0
  8  9  1  0
  8 16  1  0
  9 10  1  0
  9 11  1  0
  9 12  1  0
 12 13  1  0
 12 14  1  0
 12 15  1  0
 16 17  2  0
 17 18  1  0
 19 20  1  0
 19 21  1  0
 19 30  1  0
 21 22  1  0
 21 23  1  0
 21 24  1  0
 24 25  1  0
 24 26  1  0
 24 27  1  0
 27 28  1  0
 27 29  1  0
 27 30  1  0
 30 31  1  0
 30 32  1  0
M  END
$$$$
