
     RDKit          3D

 23 23  0  0  0  0  0  0  0  0999 V2000
  -18.0159   13.9794   25.5195 Cl  0  0  0  0  0  0  0  0  0  0  0  0
  -19.3893   13.2883   26.2947 C   0  0  0  0  0  0  0  0  0  0  0  0
  -19.8605   11.9926   26.0290 C   0  0  0  0  0  0  0  0  0  0  0  0
  -19.2662   11.0413   25.0665 C   0  0  0  0  0  0  0  0  0  0  0  0
  -19.1308    9.8313   25.1702 O   0  0  0  0  0  0  0  0  0  0  0  0
  -18.7913   11.5374   23.8965 N   0  0  0  0  0  0  0  0  0  0  0  0
  -18.3705   10.8845   23.2243 H   0  0  0  0  0  0  0  0  0  0  0  0
  -18.8504   12.5466   23.7101 H   0  0  0  0  0  0  0  0  0  0  0  0
  -20.9532   11.5545   26.7037 N   0  0  0  0  0  0  0  0  0  0  0  0
  -21.5591   12.3315   27.5883 C   0  0  0  0  0  0  0  0  0  0  0  0
  -22.7696   11.7962   28.3103 C   0  0  0  0  0  0  0  0  0  0  0  0
  -22.8032   10.7089   28.1662 H   0  0  0  0  0  0  0  0  0  0  0  0
  -22.6738   12.0657   29.8109 C   0  0  0  0  0  0  0  0  0  0  0  0
  -22.6612   13.1398   30.0309 H   0  0  0  0  0  0  0  0  0  0  0  0
  -21.7585   11.6315   30.2295 H   0  0  0  0  0  0  0  0  0  0  0  0
  -23.5264   11.6255   30.3387 H   0  0  0  0  0  0  0  0  0  0  0  0
  -24.0551   12.3831   27.7273 C   0  0  0  0  0  0  0  0  0  0  0  0
  -24.1015   13.4698   27.8601 H   0  0  0  0  0  0  0  0  0  0  0  0
  -24.9348   11.9482   28.2145 H   0  0  0  0  0  0  0  0  0  0  0  0
  -24.1286   12.1766   26.6542 H   0  0  0  0  0  0  0  0  0  0  0  0
  -21.1284   13.5678   27.8561 N   0  0  0  0  0  0  0  0  0  0  0  0
  -20.0700   14.0535   27.2344 C   0  0  0  0  0  0  0  0  0  0  0  0
  -19.7444   15.0374   27.4615 H   0  0  0  0  0  0  0  0  0  0  0  0
  1  2  1  0
  2  3  1  0
  2 22  2  0
  3  4  1  0
  3  9  2  0
  4  5  2  0
  4  6  1  0
  6  7  1  0
  6  8  1  0
  9 10  1  0
 10 11  1  0
 10 21  2  0
 11 12  1  0
 11 13  1  0
 11 17  1  0
 13 14  1  0
 13 15  1  0
 13 16  1  0
 17 18  1  0
 17 19  1  0
 17 20  1  0
 21 22  1  0
 22 23  1  0
M  END
$$$$
