
     RDKit          3D

 26 28  0  0  0  0  0  0  0  0999 V2000
  -18.4998   16.2620   24.8279 O   0  0  0  0  0  0  0  0  0  0  0  0
  -18.2527   15.6129   25.8393 C   0  0  0  0  0  0  0  0  0  0  0  0
  -17.5785   16.2422   26.8553 N   0  0  0  0  0  0  0  0  0  0  0  0
  -17.4693   15.7452   27.7440 H   0  0  0  0  0  0  0  0  0  0  0  0
  -17.0480   17.5647   26.7511 C   0  0  0  0  0  0  0  0  0  0  0  0
  -17.8106   18.3102   26.5354 H   0  0  0  0  0  0  0  0  0  0  0  0
  -15.6883   17.8067   26.1540 C   0  0  0  0  0  0  0  0  0  0  0  0
  -15.0955   16.9557   25.8409 H   0  0  0  0  0  0  0  0  0  0  0  0
  -15.5577   18.6896   25.5394 H   0  0  0  0  0  0  0  0  0  0  0  0
  -15.9049   18.0019   27.6254 C   0  0  0  0  0  0  0  0  0  0  0  0
  -15.9298   19.0140   28.0106 H   0  0  0  0  0  0  0  0  0  0  0  0
  -15.4741   17.2778   28.3063 H   0  0  0  0  0  0  0  0  0  0  0  0
  -18.6967   14.2139   26.0235 C   0  0  0  0  0  0  0  0  0  0  0  0
  -18.1998   13.2374   25.1392 C   0  0  0  0  0  0  0  0  0  0  0  0
  -17.5303   13.5006   24.3619 H   0  0  0  0  0  0  0  0  0  0  0  0
  -18.6026   11.9225   25.3015 C   0  0  0  0  0  0  0  0  0  0  0  0
  -18.2202   10.8689   24.5341 O   0  0  0  0  0  0  0  0  0  0  0  0
  -18.9442    9.7934   25.1672 C   0  0  0  0  0  0  0  0  0  0  0  0
  -19.6092    9.3351   24.4272 H   0  0  0  0  0  0  0  0  0  0  0  0
  -18.2254    9.0399   25.5090 H   0  0  0  0  0  0  0  0  0  0  0  0
  -19.7351   10.2220   26.2957 O   0  0  0  0  0  0  0  0  0  0  0  0
  -19.4646   11.5542   26.3047 C   0  0  0  0  0  0  0  0  0  0  0  0
  -19.9675   12.4849   27.2028 C   0  0  0  0  0  0  0  0  0  0  0  0
  -20.6258   12.1805   27.9761 H   0  0  0  0  0  0  0  0  0  0  0  0
  -19.5769   13.8171   27.0609 C   0  0  0  0  0  0  0  0  0  0  0  0
  -19.9391   14.5348   27.7518 H   0  0  0  0  0  0  0  0  0  0  0  0
  1  2  2  0
  2  3  1  0
  2 13  1  0
  3  4  1  0
  3  5  1  0
  5  6  1  0
  5  7  1  0
  5 10  1  0
  7  8  1  0
  7  9  1  0
  7 10  1  0
 10 11  1  0
 10 12  1  0
 13 14  1  0
 13 25  2  0
 14 15  1  0
 14 16  2  0
 16 17  1  0
 16 22  1  0
 17 18  1  0
 18 19  1  0
 18 20  1  0
 18 21  1  0
 21 22  1  0
 22 23  2  0
 23 24  1  0
 23 25  1  0
 25 26  1  0
M  END
$$$$
