
     RDKit          3D

 31 32  0  0  0  0  0  0  0  0999 V2000
  -20.4862   12.7624   28.8727 O   0  0  0  0  0  0  0  0  0  0  0  0
  -20.9312   13.0823   27.7781 C   0  0  0  0  0  0  0  0  0  0  0  0
  -22.2469   13.4344   27.7286 N   0  0  0  0  0  0  0  0  0  0  0  0
  -22.6528   13.8031   26.8604 H   0  0  0  0  0  0  0  0  0  0  0  0
  -23.1126   13.3427   28.8869 C   0  0  0  0  0  0  0  0  0  0  0  0
  -24.1134   13.6867   28.6012 H   0  0  0  0  0  0  0  0  0  0  0  0
  -22.7332   14.0168   29.6633 H   0  0  0  0  0  0  0  0  0  0  0  0
  -23.1472   11.9335   29.3601 C   0  0  0  0  0  0  0  0  0  0  0  0
  -23.4881   11.4937   30.5944 C   0  0  0  0  0  0  0  0  0  0  0  0
  -23.7998   12.0085   31.4643 H   0  0  0  0  0  0  0  0  0  0  0  0
  -23.3608   10.1484   30.5566 N   0  0  0  0  0  0  0  0  0  0  0  0
  -23.6041    9.1980   31.6213 C   0  0  0  0  0  0  0  0  0  0  0  0
  -24.0834    9.7364   32.4463 H   0  0  0  0  0  0  0  0  0  0  0  0
  -24.3167    8.4561   31.2460 H   0  0  0  0  0  0  0  0  0  0  0  0
  -22.3275    8.5291   32.0978 C   0  0  0  0  0  0  0  0  0  0  0  0
  -21.6105    9.2693   32.4694 H   0  0  0  0  0  0  0  0  0  0  0  0
  -21.8440    7.9757   31.2861 H   0  0  0  0  0  0  0  0  0  0  0  0
  -22.5459    7.8265   32.9077 H   0  0  0  0  0  0  0  0  0  0  0  0
  -22.9518    9.7183   29.3363 N   0  0  0  0  0  0  0  0  0  0  0  0
  -22.8226   10.8022   28.6215 C   0  0  0  0  0  0  0  0  0  0  0  0
  -22.5136   10.7934   27.6067 H   0  0  0  0  0  0  0  0  0  0  0  0
  -20.1006   13.1418   26.5599 C   0  0  0  0  0  0  0  0  0  0  0  0
  -19.9347   11.9658   25.8175 C   0  0  0  0  0  0  0  0  0  0  0  0
  -20.4000   11.0685   26.1434 H   0  0  0  0  0  0  0  0  0  0  0  0
  -19.2024   11.9206   24.7027 N   0  0  0  0  0  0  0  0  0  0  0  0
  -18.6044   13.0248   24.2602 C   0  0  0  0  0  0  0  0  0  0  0  0
  -18.0291   12.9569   23.3710 H   0  0  0  0  0  0  0  0  0  0  0  0
  -18.7239   14.2383   24.9322 C   0  0  0  0  0  0  0  0  0  0  0  0
  -18.2414   15.1009   24.5531 H   0  0  0  0  0  0  0  0  0  0  0  0
  -19.4798   14.3082   26.0954 C   0  0  0  0  0  0  0  0  0  0  0  0
  -19.5839   15.2297   26.6062 H   0  0  0  0  0  0  0  0  0  0  0  0
  1  2  2  0
  2  3  1  0
  2 22  1  0
  3  4  1  0
  3  5  1  0
  5  6  1  0
  5  7  1  0
  5  8  1  0
  8  9  2  0
  8 20  1  0
  9 10  1  0
  9 11  1  0
 11 12  1  0
 11 19  1  0
 12 13  1  0
 12 14  1  0
 12 15  1  0
 15 16  1  0
 15 17  1  0
 15 18  1  0
 19 20  2  0
 20 21  1  0
 22 23  1  0
 22 30  2  0
 23 24  1  0
 23 25  2  0
 25 26  1  0
 26 27  1  0
 26 28  2  0
 28 29  1  0
 28 30  1  0
 30 31  1  0
M  END
$$$$
