
     RDKit          3D

 25 27  0  0  0  0  0  0  0  0999 V2000
  -23.0336   14.7420   29.4240 O   0  0  0  0  0  0  0  0  0  0  0  0
  -23.0885   13.5155   29.3557 C   0  0  0  0  0  0  0  0  0  0  0  0
  -23.9281   12.8528   30.2001 N   0  0  0  0  0  0  0  0  0  0  0  0
  -23.9459   11.8255   30.0910 H   0  0  0  0  0  0  0  0  0  0  0  0
  -24.7548   13.4758   31.1789 C   0  0  0  0  0  0  0  0  0  0  0  0
  -25.6006   14.0042   30.7452 H   0  0  0  0  0  0  0  0  0  0  0  0
  -24.1537   14.0799   32.4192 C   0  0  0  0  0  0  0  0  0  0  0  0
  -23.0853   13.9952   32.5762 H   0  0  0  0  0  0  0  0  0  0  0  0
  -24.5872   15.0005   32.7919 H   0  0  0  0  0  0  0  0  0  0  0  0
  -24.9754   12.8285   32.5180 C   0  0  0  0  0  0  0  0  0  0  0  0
  -25.9653   12.8983   32.9523 H   0  0  0  0  0  0  0  0  0  0  0  0
  -24.4611   11.8977   32.7285 H   0  0  0  0  0  0  0  0  0  0  0  0
  -22.3236   12.7153   28.4279 C   0  0  0  0  0  0  0  0  0  0  0  0
  -21.1859   13.1064   27.7674 C   0  0  0  0  0  0  0  0  0  0  0  0
  -20.8342   12.0127   27.0121 N   0  0  0  0  0  0  0  0  0  0  0  0
  -21.6855   10.9643   27.1678 N   0  0  0  0  0  0  0  0  0  0  0  0
  -22.5762   11.4052   28.0233 C   0  0  0  0  0  0  0  0  0  0  0  0
  -23.3938   10.8188   28.3625 H   0  0  0  0  0  0  0  0  0  0  0  0
  -19.7037   12.0301   26.1857 C   0  0  0  0  0  0  0  0  0  0  0  0
  -19.5145   11.1413   25.6420 H   0  0  0  0  0  0  0  0  0  0  0  0
  -18.9797   13.1913   26.1776 C   0  0  0  0  0  0  0  0  0  0  0  0
  -18.1125   13.2836   25.5775 H   0  0  0  0  0  0  0  0  0  0  0  0
  -19.3787   14.3107   26.9801 C   0  0  0  0  0  0  0  0  0  0  0  0
  -18.8021   15.1997   26.9568 H   0  0  0  0  0  0  0  0  0  0  0  0
  -20.4333   14.2883   27.7489 N   0  0  0  0  0  0  0  0  0  0  0  0
  1  2  2  0
  2  3  1  0
  2 13  1  0
  3  4  1  0
  3  5  1  0
  5  6  1  0
  5  7  1  0
  5 10  1  0
  7  8  1  0
  7  9  1  0
  7 10  1  0
 10 11  1  0
 10 12  1  0
 13 14  2  0
 13 17  1  0
 14 15  1  0
 14 25  1  0
 15 16  1  0
 15 19  1  0
 16 17  2  0
 17 18  1  0
 19 20  1  0
 19 21  2  0
 21 22  1  0
 21 23  1  0
 23 24  1  0
 23 25  2  0
M  END
$$$$
