
     RDKit          3D

 26 26  0  0  0  0  0  0  0  0999 V2000
  -23.4879   11.6002   27.8408 F   0  0  0  0  0  0  0  0  0  0  0  0
  -24.3529   12.4974   28.3391 C   0  0  0  0  0  0  0  0  0  0  0  0
  -24.5121   12.6950   29.7230 C   0  0  0  0  0  0  0  0  0  0  0  0
  -23.7537   11.9854   30.6678 N   0  0  0  0  0  0  0  0  0  0  0  0
  -24.2363   11.9755   32.0690 C   0  0  0  0  0  0  0  0  0  0  0  0
  -23.4307   12.9571   32.9403 C   0  0  0  0  0  0  0  0  0  0  0  0
  -22.4204   12.5721   33.1158 H   0  0  0  0  0  0  0  0  0  0  0  0
  -23.9004   13.1070   33.9174 H   0  0  0  0  0  0  0  0  0  0  0  0
  -23.3090   14.2353   32.3196 O   0  0  0  0  0  0  0  0  0  0  0  0
  -22.7981   14.7721   32.9519 H   0  0  0  0  0  0  0  0  0  0  0  0
  -24.2394   10.5673   32.6763 C   0  0  0  0  0  0  0  0  0  0  0  0
  -24.7721   10.5725   33.6341 H   0  0  0  0  0  0  0  0  0  0  0  0
  -23.2315   10.1919   32.8762 H   0  0  0  0  0  0  0  0  0  0  0  0
  -24.7465    9.8565   32.0165 H   0  0  0  0  0  0  0  0  0  0  0  0
  -22.5423   11.2804   30.2744 C   0  0  0  0  0  0  0  0  0  0  0  0
  -22.7878   10.3537   29.7455 H   0  0  0  0  0  0  0  0  0  0  0  0
  -21.9173   11.0143   31.1319 H   0  0  0  0  0  0  0  0  0  0  0  0
  -21.9056   11.9086   29.6400 H   0  0  0  0  0  0  0  0  0  0  0  0
  -25.3932   13.5860   30.2030 N   0  0  0  0  0  0  0  0  0  0  0  0
  -26.1391   14.2821   29.3361 C   0  0  0  0  0  0  0  0  0  0  0  0
  -26.8334   14.9776   29.7325 H   0  0  0  0  0  0  0  0  0  0  0  0
  -26.0305   14.1207   27.9534 C   0  0  0  0  0  0  0  0  0  0  0  0
  -26.6412   14.6924   27.3046 H   0  0  0  0  0  0  0  0  0  0  0  0
  -25.1162   13.2085   27.4328 C   0  0  0  0  0  0  0  0  0  0  0  0
  -25.0038   13.0611   26.3900 H   0  0  0  0  0  0  0  0  0  0  0  0
  -25.2889   12.2881   32.0965 H   0  0  0  0  0  0  0  0  0  0  0  0
  1  2  1  0
  2  3  1  0
  2 24  2  0
  3  4  1  0
  3 19  2  0
  4  5  1  0
  4 15  1  0
  5  6  1  0
  5 11  1  0
  5 26  1  0
  6  7  1  0
  6  8  1  0
  6  9  1  0
  9 10  1  0
 11 12  1  0
 11 13  1  0
 11 14  1  0
 15 16  1  0
 15 17  1  0
 15 18  1  0
 19 20  1  0
 20 21  1  0
 20 22  2  0
 22 23  1  0
 22 24  1  0
 24 25  1  0
M  END
$$$$
