
     RDKit          3D

 20 20  0  0  0  0  0  0  0  0999 V2000
  -18.3959   15.3395   25.0573 O   0  0  0  0  0  0  0  0  0  0  0  0
  -18.6006   14.1100   25.0351 C   0  0  0  0  0  0  0  0  0  0  0  0
  -19.3718   13.5294   26.0603 N   0  0  0  0  0  0  0  0  0  0  0  0
  -19.9110   14.3794   27.1175 C   0  0  0  0  0  0  0  0  0  0  0  0
  -21.0017   14.2943   27.1298 H   0  0  0  0  0  0  0  0  0  0  0  0
  -19.6583   15.4336   26.9731 H   0  0  0  0  0  0  0  0  0  0  0  0
  -19.4975   14.0624   28.0804 H   0  0  0  0  0  0  0  0  0  0  0  0
  -19.6183   12.1375   26.0806 C   0  0  0  0  0  0  0  0  0  0  0  0
  -20.4227   11.5404   27.2016 C   0  0  0  0  0  0  0  0  0  0  0  0
  -19.9344   11.7163   28.1657 H   0  0  0  0  0  0  0  0  0  0  0  0
  -20.5340   10.4564   27.0896 H   0  0  0  0  0  0  0  0  0  0  0  0
  -21.4300   11.9663   27.2287 H   0  0  0  0  0  0  0  0  0  0  0  0
  -19.1330   11.3521   25.0719 C   0  0  0  0  0  0  0  0  0  0  0  0
  -19.3194   10.3092   25.0780 H   0  0  0  0  0  0  0  0  0  0  0  0
  -18.3678   11.8956   24.0050 C   0  0  0  0  0  0  0  0  0  0  0  0
  -17.9994   11.2609   23.2411 H   0  0  0  0  0  0  0  0  0  0  0  0
  -18.1005   13.2323   23.9849 C   0  0  0  0  0  0  0  0  0  0  0  0
  -17.3598   13.8271   22.9936 N   0  0  0  0  0  0  0  0  0  0  0  0
  -16.9768   13.2911   22.2284 H   0  0  0  0  0  0  0  0  0  0  0  0
  -17.2117   14.8315   23.0585 H   0  0  0  0  0  0  0  0  0  0  0  0
  1  2  2  0
  2  3  1  0
  2 17  1  0
  3  4  1  0
  3  8  1  0
  4  5  1  0
  4  6  1  0
  4  7  1  0
  8  9  1  0
  8 13  2  0
  9 10  1  0
  9 11  1  0
  9 12  1  0
 13 14  1  0
 13 15  1  0
 15 16  1  0
 15 17  2  0
 17 18  1  0
 18 19  1  0
 18 20  1  0
M  END
$$$$
