
     RDKit          3D

 24 25  0  0  0  0  0  0  0  0999 V2000
  -23.0421   12.7673   30.2412 F   0  0  0  0  0  0  0  0  0  0  0  0
  -23.9352   13.4410   29.5025 C   0  0  0  0  0  0  0  0  0  0  0  0
  -24.2884   13.0189   28.2076 C   0  0  0  0  0  0  0  0  0  0  0  0
  -23.7370   11.9237   27.5548 N   0  0  0  0  0  0  0  0  0  0  0  0
  -24.2416   11.5613   26.7529 H   0  0  0  0  0  0  0  0  0  0  0  0
  -22.5138   11.2138   27.8749 C   0  0  0  0  0  0  0  0  0  0  0  0
  -22.4192   10.9456   28.9280 H   0  0  0  0  0  0  0  0  0  0  0  0
  -22.5221   10.2673   27.3210 H   0  0  0  0  0  0  0  0  0  0  0  0
  -21.3022   11.9882   27.4994 C   0  0  0  0  0  0  0  0  0  0  0  0
  -21.0790   13.2321   27.9815 N   0  0  0  0  0  0  0  0  0  0  0  0
  -21.7263   13.7425   28.6151 H   0  0  0  0  0  0  0  0  0  0  0  0
  -19.9138   13.7605   27.5244 N   0  0  0  0  0  0  0  0  0  0  0  0
  -19.4099   12.8354   26.7532 C   0  0  0  0  0  0  0  0  0  0  0  0
  -18.4890   12.9442   26.2387 H   0  0  0  0  0  0  0  0  0  0  0  0
  -20.2383   11.7204   26.7093 C   0  0  0  0  0  0  0  0  0  0  0  0
  -20.0654   10.8302   26.1595 H   0  0  0  0  0  0  0  0  0  0  0  0
  -25.2540   13.7454   27.5072 C   0  0  0  0  0  0  0  0  0  0  0  0
  -25.5498   13.4337   26.5386 H   0  0  0  0  0  0  0  0  0  0  0  0
  -25.8214   14.8816   28.0807 C   0  0  0  0  0  0  0  0  0  0  0  0
  -26.5511   15.4333   27.5420 H   0  0  0  0  0  0  0  0  0  0  0  0
  -25.4447   15.2996   29.3585 C   0  0  0  0  0  0  0  0  0  0  0  0
  -25.8856   16.1650   29.7842 H   0  0  0  0  0  0  0  0  0  0  0  0
  -24.4982   14.5717   30.0769 C   0  0  0  0  0  0  0  0  0  0  0  0
  -24.2122   14.8707   31.0526 H   0  0  0  0  0  0  0  0  0  0  0  0
  1  2  1  0
  2  3  1  0
  2 23  2  0
  3  4  1  0
  3 17  2  0
  4  5  1  0
  4  6  1  0
  6  7  1  0
  6  8  1  0
  6  9  1  0
  9 10  1  0
  9 15  2  0
 10 11  1  0
 10 12  1  0
 12 13  2  0
 13 14  1  0
 13 15  1  0
 15 16  1  0
 17 18  1  0
 17 19  1  0
 19 20  1  0
 19 21  2  0
 21 22  1  0
 21 23  1  0
 23 24  1  0
M  END
$$$$
