
     RDKit          3D

 19 19  0  0  0  0  0  0  0  0999 V2000
  -21.5706   12.8570   25.7092 O   0  0  0  0  0  0  0  0  0  0  0  0
  -20.4063   13.0149   26.0691 C   0  0  0  0  0  0  0  0  0  0  0  0
  -20.0571   12.4804   27.3078 N   0  0  0  0  0  0  0  0  0  0  0  0
  -21.0977   12.0627   28.2374 C   0  0  0  0  0  0  0  0  0  0  0  0
  -20.8838   12.4904   29.2223 H   0  0  0  0  0  0  0  0  0  0  0  0
  -21.0882   10.9709   28.3038 H   0  0  0  0  0  0  0  0  0  0  0  0
  -22.0917   12.3921   27.9255 H   0  0  0  0  0  0  0  0  0  0  0  0
  -18.6884   12.2676   27.7597 C   0  0  0  0  0  0  0  0  0  0  0  0
  -18.6246   11.2990   28.2663 H   0  0  0  0  0  0  0  0  0  0  0  0
  -18.4258   13.0614   28.4648 H   0  0  0  0  0  0  0  0  0  0  0  0
  -17.9829   12.2564   26.9265 H   0  0  0  0  0  0  0  0  0  0  0  0
  -19.4313   13.7150   25.2528 C   0  0  0  0  0  0  0  0  0  0  0  0
  -18.6893   14.7743   25.6832 C   0  0  0  0  0  0  0  0  0  0  0  0
  -18.6770   15.2885   26.6089 H   0  0  0  0  0  0  0  0  0  0  0  0
  -17.8851   15.1055   24.6591 N   0  0  0  0  0  0  0  0  0  0  0  0
  -17.1948   15.8802   24.6718 H   0  0  0  0  0  0  0  0  0  0  0  0
  -18.0703   14.2964   23.5806 N   0  0  0  0  0  0  0  0  0  0  0  0
  -18.9957   13.4577   23.9511 C   0  0  0  0  0  0  0  0  0  0  0  0
  -19.3521   12.6785   23.3242 H   0  0  0  0  0  0  0  0  0  0  0  0
  1  2  2  0
  2  3  1  0
  2 12  1  0
  3  4  1  0
  3  8  1  0
  4  5  1  0
  4  6  1  0
  4  7  1  0
  8  9  1  0
  8 10  1  0
  8 11  1  0
 12 13  2  0
 12 18  1  0
 13 14  1  0
 13 15  1  0
 15 16  1  0
 15 17  1  0
 17 18  2  0
 18 19  1  0
M  END
$$$$
