
     RDKit          3D

 29 31  0  0  0  0  0  0  0  0999 V2000
  -19.4890   13.9210   27.2797 O   0  0  0  0  0  0  0  0  0  0  0  0
  -19.7998   12.9673   26.6017 C   0  0  0  0  0  0  0  0  0  0  0  0
  -21.0449   12.4199   26.6622 N   0  0  0  0  0  0  0  0  0  0  0  0
  -21.2134   11.6019   26.0706 H   0  0  0  0  0  0  0  0  0  0  0  0
  -22.1363   12.7920   27.4117 C   0  0  0  0  0  0  0  0  0  0  0  0
  -23.6245   11.8968   27.3761 S   0  0  0  0  0  0  0  0  0  0  0  0
  -24.2689   13.0256   28.5170 C   0  0  0  0  0  0  0  0  0  0  0  0
  -23.3012   13.9809   28.8251 C   0  0  0  0  0  0  0  0  0  0  0  0
  -22.0788   13.8328   28.1816 N   0  0  0  0  0  0  0  0  0  0  0  0
  -23.6188   14.9982   29.7403 C   0  0  0  0  0  0  0  0  0  0  0  0
  -22.8885   15.7267   29.9773 H   0  0  0  0  0  0  0  0  0  0  0  0
  -24.8782   15.0412   30.3210 C   0  0  0  0  0  0  0  0  0  0  0  0
  -25.1133   15.8092   31.0106 H   0  0  0  0  0  0  0  0  0  0  0  0
  -25.8386   14.0588   29.9907 C   0  0  0  0  0  0  0  0  0  0  0  0
  -27.1116   13.9981   30.5008 O   0  0  0  0  0  0  0  0  0  0  0  0
  -28.1601   14.5383   29.7049 C   0  0  0  0  0  0  0  0  0  0  0  0
  -28.2556   13.9964   28.7580 H   0  0  0  0  0  0  0  0  0  0  0  0
  -29.0970   14.4117   30.2556 H   0  0  0  0  0  0  0  0  0  0  0  0
  -28.0158   15.6105   29.5363 H   0  0  0  0  0  0  0  0  0  0  0  0
  -25.5464   13.0489   29.0925 C   0  0  0  0  0  0  0  0  0  0  0  0
  -26.2684   12.3150   28.8453 H   0  0  0  0  0  0  0  0  0  0  0  0
  -18.8632   12.3370   25.6457 C   0  0  0  0  0  0  0  0  0  0  0  0
  -18.2024   11.6064   26.1043 H   0  0  0  0  0  0  0  0  0  0  0  0
  -18.3300   13.1028   24.4579 C   0  0  0  0  0  0  0  0  0  0  0  0
  -18.6650   14.1195   24.2859 H   0  0  0  0  0  0  0  0  0  0  0  0
  -17.3074   12.9163   24.1532 H   0  0  0  0  0  0  0  0  0  0  0  0
  -19.3320   12.0059   24.2496 C   0  0  0  0  0  0  0  0  0  0  0  0
  -18.9890   11.0780   23.8082 H   0  0  0  0  0  0  0  0  0  0  0  0
  -20.3413   12.2847   23.9654 H   0  0  0  0  0  0  0  0  0  0  0  0
  1  2  2  0
  2  3  1  0
  2 22  1  0
  3  4  1  0
  3  5  1  0
  5  6  1  0
  5  9  2  0
  6  7  1  0
  7  8  1  0
  7 20  2  0
  8  9  1  0
  8 10  2  0
 10 11  1  0
 10 12  1  0
 12 13  1  0
 12 14  2  0
 14 15  1  0
 14 20  1  0
 15 16  1  0
 16 17  1  0
 16 18  1  0
 16 19  1  0
 20 21  1  0
 22 23  1  0
 22 24  1  0
 22 27  1  0
 24 25  1  0
 24 26  1  0
 24 27  1  0
 27 28  1  0
 27 29  1  0
M  END
$$$$
