
     RDKit          3D

 28 29  0  0  0  0  0  0  0  0999 V2000
  -19.2071   16.6777   27.5332 O   0  0  0  0  0  0  0  0  0  0  0  0
  -18.6604   16.3065   26.5078 C   0  0  0  0  0  0  0  0  0  0  0  0
  -17.5946   16.9483   26.0723 N   0  0  0  0  0  0  0  0  0  0  0  0
  -17.2835   17.7303   26.6245 H   0  0  0  0  0  0  0  0  0  0  0  0
  -17.1250   16.6694   25.2289 H   0  0  0  0  0  0  0  0  0  0  0  0
  -19.1165   15.1379   25.6752 C   0  0  0  0  0  0  0  0  0  0  0  0
  -20.1926   14.9988   25.8272 H   0  0  0  0  0  0  0  0  0  0  0  0
  -18.9628   15.3877   24.6184 H   0  0  0  0  0  0  0  0  0  0  0  0
  -18.3549   13.8727   26.0470 C   0  0  0  0  0  0  0  0  0  0  0  0
  -17.8642   13.9777   27.0208 H   0  0  0  0  0  0  0  0  0  0  0  0
  -17.5602   13.6574   25.3221 H   0  0  0  0  0  0  0  0  0  0  0  0
  -19.2293   12.7160   26.0955 N   0  0  0  0  0  0  0  0  0  0  0  0
  -19.1495   11.5867   25.3138 C   0  0  0  0  0  0  0  0  0  0  0  0
  -18.1177   11.3925   24.2609 C   0  0  0  0  0  0  0  0  0  0  0  0
  -18.1887   10.3860   23.8379 H   0  0  0  0  0  0  0  0  0  0  0  0
  -17.1116   11.5134   24.6718 H   0  0  0  0  0  0  0  0  0  0  0  0
  -18.2588   12.1099   23.4468 H   0  0  0  0  0  0  0  0  0  0  0  0
  -20.0712   10.7323   25.6111 N   0  0  0  0  0  0  0  0  0  0  0  0
  -20.7994   11.3069   26.6292 C   0  0  0  0  0  0  0  0  0  0  0  0
  -20.2853   12.5490   26.9414 C   0  0  0  0  0  0  0  0  0  0  0  0
  -20.8277   13.3670   27.9434 C   0  0  0  0  0  0  0  0  0  0  0  0
  -20.4163   14.3189   28.1604 H   0  0  0  0  0  0  0  0  0  0  0  0
  -21.9254   12.8866   28.6407 C   0  0  0  0  0  0  0  0  0  0  0  0
  -22.3655   13.4722   29.4051 H   0  0  0  0  0  0  0  0  0  0  0  0
  -22.4652   11.6158   28.3378 C   0  0  0  0  0  0  0  0  0  0  0  0
  -23.3058   11.2633   28.8808 H   0  0  0  0  0  0  0  0  0  0  0  0
  -21.9090   10.8283   27.3389 C   0  0  0  0  0  0  0  0  0  0  0  0
  -22.3062    9.8772   27.1035 H   0  0  0  0  0  0  0  0  0  0  0  0
  1  2  2  0
  2  3  1  0
  2  6  1  0
  3  4  1  0
  3  5  1  0
  6  7  1  0
  6  8  1  0
  6  9  1  0
  9 10  1  0
  9 11  1  0
  9 12  1  0
 12 13  1  0
 12 20  1  0
 13 14  1  0
 13 18  2  0
 14 15  1  0
 14 16  1  0
 14 17  1  0
 18 19  1  0
 19 20  1  0
 19 27  2  0
 20 21  2  0
 21 22  1  0
 21 23  1  0
 23 24  1  0
 23 25  2  0
 25 26  1  0
 25 27  1  0
 27 28  1  0
M  END
$$$$
