
     RDKit          3D

 22 22  0  0  0  0  0  0  0  0999 V2000
  -17.5930   10.9246   24.4388 O   0  0  0  0  0  0  0  0  0  0  0  0
  -17.3526   11.8396   24.2116 H   0  0  0  0  0  0  0  0  0  0  0  0
  -18.9751   10.9312   24.7851 C   0  0  0  0  0  0  0  0  0  0  0  0
  -19.5522   11.2998   23.9301 H   0  0  0  0  0  0  0  0  0  0  0  0
  -19.2690    9.8969   24.9905 H   0  0  0  0  0  0  0  0  0  0  0  0
  -19.2002   11.7891   26.0286 C   0  0  0  0  0  0  0  0  0  0  0  0
  -20.2685   11.7773   26.2774 H   0  0  0  0  0  0  0  0  0  0  0  0
  -18.6608   11.3599   26.8829 H   0  0  0  0  0  0  0  0  0  0  0  0
  -18.7600   13.2074   25.8443 C   0  0  0  0  0  0  0  0  0  0  0  0
  -18.1126   13.9854   26.7408 C   0  0  0  0  0  0  0  0  0  0  0  0
  -17.7855   13.7958   27.7292 H   0  0  0  0  0  0  0  0  0  0  0  0
  -17.9223   15.1758   26.1309 N   0  0  0  0  0  0  0  0  0  0  0  0
  -17.2703   16.3534   26.6614 C   0  0  0  0  0  0  0  0  0  0  0  0
  -16.7641   16.0657   27.5890 H   0  0  0  0  0  0  0  0  0  0  0  0
  -16.5044   16.6623   25.9417 H   0  0  0  0  0  0  0  0  0  0  0  0
  -18.2514   17.4822   26.9231 C   0  0  0  0  0  0  0  0  0  0  0  0
  -19.0186   17.1785   27.6448 H   0  0  0  0  0  0  0  0  0  0  0  0
  -18.7617   17.7853   26.0027 H   0  0  0  0  0  0  0  0  0  0  0  0
  -17.7283   18.3543   27.3274 H   0  0  0  0  0  0  0  0  0  0  0  0
  -18.4313   15.1855   24.8737 N   0  0  0  0  0  0  0  0  0  0  0  0
  -18.9332   13.9919   24.7074 C   0  0  0  0  0  0  0  0  0  0  0  0
  -19.4134   13.6777   23.8131 H   0  0  0  0  0  0  0  0  0  0  0  0
  1  2  1  0
  1  3  1  0
  3  4  1  0
  3  5  1  0
  3  6  1  0
  6  7  1  0
  6  8  1  0
  6  9  1  0
  9 10  2  0
  9 21  1  0
 10 11  1  0
 10 12  1  0
 12 13  1  0
 12 20  1  0
 13 14  1  0
 13 15  1  0
 13 16  1  0
 16 17  1  0
 16 18  1  0
 16 19  1  0
 20 21  2  0
 21 22  1  0
M  END
$$$$
