
     RDKit          3D

 26 26  0  0  0  0  0  0  0  0999 V2000
  -19.1179   12.3905   25.8308 S   0  0  0  0  0  0  0  0  0  0  0  0
  -20.0127   12.4430   24.6954 O   0  0  0  0  0  0  0  0  0  0  0  0
  -17.9921   11.4815   25.8698 O   0  0  0  0  0  0  0  0  0  0  0  0
  -20.0171   12.1088   27.2271 N   0  0  0  0  0  0  0  0  0  0  0  0
  -19.4627   11.8714   28.0536 H   0  0  0  0  0  0  0  0  0  0  0  0
  -21.2621   12.8657   27.4587 C   0  0  0  0  0  0  0  0  0  0  0  0
  -21.0069   13.7675   28.0262 H   0  0  0  0  0  0  0  0  0  0  0  0
  -21.7166   13.1735   26.5106 H   0  0  0  0  0  0  0  0  0  0  0  0
  -22.2497   12.0274   28.2737 C   0  0  0  0  0  0  0  0  0  0  0  0
  -22.5303   11.1199   27.7233 H   0  0  0  0  0  0  0  0  0  0  0  0
  -21.7541   11.6803   29.1893 H   0  0  0  0  0  0  0  0  0  0  0  0
  -23.4972   12.7915   28.6603 C   0  0  0  0  0  0  0  0  0  0  0  0
  -23.7093   13.1587   29.9944 C   0  0  0  0  0  0  0  0  0  0  0  0
  -23.0054   12.8919   30.7392 H   0  0  0  0  0  0  0  0  0  0  0  0
  -24.8480   13.8769   30.3515 C   0  0  0  0  0  0  0  0  0  0  0  0
  -25.0196   14.1601   31.3576 H   0  0  0  0  0  0  0  0  0  0  0  0
  -25.7597   14.2202   29.3635 C   0  0  0  0  0  0  0  0  0  0  0  0
  -26.8563   14.9116   29.7057 F   0  0  0  0  0  0  0  0  0  0  0  0
  -25.5715   13.8736   28.0334 C   0  0  0  0  0  0  0  0  0  0  0  0
  -26.2822   14.1563   27.3020 H   0  0  0  0  0  0  0  0  0  0  0  0
  -24.4312   13.1537   27.6844 C   0  0  0  0  0  0  0  0  0  0  0  0
  -24.2704   12.8891   26.6698 H   0  0  0  0  0  0  0  0  0  0  0  0
  -18.4972   14.0317   26.1290 C   0  0  0  0  0  0  0  0  0  0  0  0
  -19.3335   14.7317   26.1713 H   0  0  0  0  0  0  0  0  0  0  0  0
  -17.8385   14.2973   25.2991 H   0  0  0  0  0  0  0  0  0  0  0  0
  -17.9336   14.0334   27.0634 H   0  0  0  0  0  0  0  0  0  0  0  0
  1  2  2  0
  1  3  2  0
  1  4  1  0
  1 23  1  0
  4  5  1  0
  4  6  1  0
  6  7  1  0
  6  8  1  0
  6  9  1  0
  9 10  1  0
  9 11  1  0
  9 12  1  0
 12 13  1  0
 12 21  2  0
 13 14  1  0
 13 15  2  0
 15 16  1  0
 15 17  1  0
 17 18  1  0
 17 19  2  0
 19 20  1  0
 19 21  1  0
 21 22  1  0
 23 24  1  0
 23 25  1  0
 23 26  1  0
M  END
$$$$
