
     RDKit          3D

 23 24  0  0  0  0  0  0  0  0999 V2000
  -22.7342   13.4602   28.5057 C   0  0  0  0  0  0  0  0  0  0  0  0
  -21.9480   13.5583   29.2572 H   0  0  0  0  0  0  0  0  0  0  0  0
  -23.4675   12.7234   28.8429 H   0  0  0  0  0  0  0  0  0  0  0  0
  -23.2176   14.4263   28.3372 H   0  0  0  0  0  0  0  0  0  0  0  0
  -22.1663   13.0189   27.2616 N   0  0  0  0  0  0  0  0  0  0  0  0
  -22.9535   12.4653   26.3281 N   0  0  0  0  0  0  0  0  0  0  0  0
  -22.1998   12.1701   25.2941 N   0  0  0  0  0  0  0  0  0  0  0  0
  -20.9393   12.5413   25.6025 C   0  0  0  0  0  0  0  0  0  0  0  0
  -20.9042   13.0649   26.8382 C   0  0  0  0  0  0  0  0  0  0  0  0
  -19.7024   13.5695   27.5528 C   0  0  0  0  0  0  0  0  0  0  0  0
  -19.9333   14.4963   28.0879 H   0  0  0  0  0  0  0  0  0  0  0  0
  -19.4203   12.8274   28.3106 H   0  0  0  0  0  0  0  0  0  0  0  0
  -18.5229   13.7351   26.5628 C   0  0  0  0  0  0  0  0  0  0  0  0
  -18.5298   15.1345   25.9398 C   0  0  0  0  0  0  0  0  0  0  0  0
  -18.3950   16.1060   26.7173 O   0  0  0  0  0  0  0  0  0  0  0  0
  -18.6291   15.2197   24.6962 O   0  0  0  0  0  0  0  0  0  0  0  0
  -18.4618   12.5839   25.5260 C   0  0  0  0  0  0  0  0  0  0  0  0
  -17.6203   12.7211   24.8372 H   0  0  0  0  0  0  0  0  0  0  0  0
  -18.2662   11.6488   26.0695 H   0  0  0  0  0  0  0  0  0  0  0  0
  -19.7655   12.4162   24.7129 C   0  0  0  0  0  0  0  0  0  0  0  0
  -19.7639   11.4397   24.2157 H   0  0  0  0  0  0  0  0  0  0  0  0
  -19.8244   13.1808   23.9307 H   0  0  0  0  0  0  0  0  0  0  0  0
  -17.5930   13.7024   27.1482 H   0  0  0  0  0  0  0  0  0  0  0  0
  1  2  1  0
  1  3  1  0
  1  4  1  0
  1  5  1  0
  5  6  1  0
  5  9  1  0
  6  7  2  0
  7  8  1  0
  8  9  2  0
  8 20  1  0
  9 10  1  0
 10 11  1  0
 10 12  1  0
 10 13  1  0
 13 14  1  0
 13 17  1  0
 13 23  1  0
 14 15  1  0
 14 16  2  0
 17 18  1  0
 17 19  1  0
 17 20  1  0
 20 21  1  0
 20 22  1  0
M  END
$$$$
