
     RDKit          3D

 26 26  0  0  0  0  0  0  0  0999 V2000
  -19.1105   18.8538   27.5372 S   0  0  0  0  0  0  0  0  0  0  0  0
  -19.5655   18.6869   28.9002 O   0  0  0  0  0  0  0  0  0  0  0  0
  -20.0408   18.9719   26.4345 O   0  0  0  0  0  0  0  0  0  0  0  0
  -18.0579   17.5966   27.1510 N   0  0  0  0  0  0  0  0  0  0  0  0
  -17.2505   17.5071   27.7729 H   0  0  0  0  0  0  0  0  0  0  0  0
  -18.5922   16.3484   26.5739 C   0  0  0  0  0  0  0  0  0  0  0  0
  -19.2875   15.9128   27.3000 H   0  0  0  0  0  0  0  0  0  0  0  0
  -19.1426   16.5481   25.6480 H   0  0  0  0  0  0  0  0  0  0  0  0
  -17.4573   15.3551   26.3135 C   0  0  0  0  0  0  0  0  0  0  0  0
  -16.7416   15.7689   25.5913 H   0  0  0  0  0  0  0  0  0  0  0  0
  -16.8921   15.2059   27.2424 H   0  0  0  0  0  0  0  0  0  0  0  0
  -17.9481   14.0094   25.8260 C   0  0  0  0  0  0  0  0  0  0  0  0
  -18.1920   12.9785   26.7411 C   0  0  0  0  0  0  0  0  0  0  0  0
  -18.0213   13.1317   27.7749 H   0  0  0  0  0  0  0  0  0  0  0  0
  -18.6602   11.7438   26.2980 C   0  0  0  0  0  0  0  0  0  0  0  0
  -18.8480   10.9560   26.9807 H   0  0  0  0  0  0  0  0  0  0  0  0
  -18.8804   11.5596   24.9406 C   0  0  0  0  0  0  0  0  0  0  0  0
  -19.3311   10.3716   24.5125 F   0  0  0  0  0  0  0  0  0  0  0  0
  -18.6520   12.5658   24.0130 C   0  0  0  0  0  0  0  0  0  0  0  0
  -18.8363   12.3962   22.9847 H   0  0  0  0  0  0  0  0  0  0  0  0
  -18.1821   13.7971   24.4636 C   0  0  0  0  0  0  0  0  0  0  0  0
  -18.0109   14.5781   23.7664 H   0  0  0  0  0  0  0  0  0  0  0  0
  -18.0236   20.2620   27.4798 C   0  0  0  0  0  0  0  0  0  0  0  0
  -17.2676   20.1665   28.2611 H   0  0  0  0  0  0  0  0  0  0  0  0
  -18.6242   21.1569   27.6580 H   0  0  0  0  0  0  0  0  0  0  0  0
  -17.5646   20.3156   26.4912 H   0  0  0  0  0  0  0  0  0  0  0  0
  1  2  2  0
  1  3  2  0
  1  4  1  0
  1 23  1  0
  4  5  1  0
  4  6  1  0
  6  7  1  0
  6  8  1  0
  6  9  1  0
  9 10  1  0
  9 11  1  0
  9 12  1  0
 12 13  1  0
 12 21  2  0
 13 14  1  0
 13 15  2  0
 15 16  1  0
 15 17  1  0
 17 18  1  0
 17 19  2  0
 19 20  1  0
 19 21  1  0
 21 22  1  0
 23 24  1  0
 23 25  1  0
 23 26  1  0
M  END
$$$$
