
     RDKit          3D

 19 19  0  0  0  0  0  0  0  0999 V2000
  -23.9665   13.1080   26.9177 O   0  0  0  0  0  0  0  0  0  0  0  0
  -24.3361   13.0603   28.0887 C   0  0  0  0  0  0  0  0  0  0  0  0
  -23.6198   12.2174   28.9364 N   0  0  0  0  0  0  0  0  0  0  0  0
  -22.7154   11.2226   28.3760 C   0  0  0  0  0  0  0  0  0  0  0  0
  -22.9208   10.2548   28.8449 H   0  0  0  0  0  0  0  0  0  0  0  0
  -21.6870   11.5234   28.5955 H   0  0  0  0  0  0  0  0  0  0  0  0
  -22.8324   11.1152   27.2950 H   0  0  0  0  0  0  0  0  0  0  0  0
  -23.6768   12.2661   30.3914 C   0  0  0  0  0  0  0  0  0  0  0  0
  -22.6659   12.1449   30.7941 H   0  0  0  0  0  0  0  0  0  0  0  0
  -24.3064   11.4442   30.7442 H   0  0  0  0  0  0  0  0  0  0  0  0
  -24.0680   13.2201   30.7507 H   0  0  0  0  0  0  0  0  0  0  0  0
  -25.4564   13.8418   28.5800 C   0  0  0  0  0  0  0  0  0  0  0  0
  -25.7481   15.1078   28.1678 C   0  0  0  0  0  0  0  0  0  0  0  0
  -25.2575   15.7503   27.4837 H   0  0  0  0  0  0  0  0  0  0  0  0
  -26.8701   15.4610   28.8172 N   0  0  0  0  0  0  0  0  0  0  0  0
  -27.3509   16.3754   28.7193 H   0  0  0  0  0  0  0  0  0  0  0  0
  -27.3242   14.4692   29.6310 N   0  0  0  0  0  0  0  0  0  0  0  0
  -26.4721   13.4963   29.4742 C   0  0  0  0  0  0  0  0  0  0  0  0
  -26.5652   12.5627   29.9709 H   0  0  0  0  0  0  0  0  0  0  0  0
  1  2  2  0
  2  3  1  0
  2 12  1  0
  3  4  1  0
  3  8  1  0
  4  5  1  0
  4  6  1  0
  4  7  1  0
  8  9  1  0
  8 10  1  0
  8 11  1  0
 12 13  2  0
 12 18  1  0
 13 14  1  0
 13 15  1  0
 15 16  1  0
 15 17  1  0
 17 18  2  0
 18 19  1  0
M  END
$$$$
