
     RDKit          3D

 19 19  0  0  0  0  0  0  0  0999 V2000
  -17.6208   19.0447   27.4171 Br  0  0  0  0  0  0  0  0  0  0  0  0
  -17.4044   17.3706   26.6207 C   0  0  0  0  0  0  0  0  0  0  0  0
  -18.3497   16.5903   26.0544 C   0  0  0  0  0  0  0  0  0  0  0  0
  -19.3942   16.7212   25.9355 H   0  0  0  0  0  0  0  0  0  0  0  0
  -17.7043   15.4838   25.6242 N   0  0  0  0  0  0  0  0  0  0  0  0
  -18.2582   14.3346   24.9362 C   0  0  0  0  0  0  0  0  0  0  0  0
  -19.0338   14.7058   24.2571 H   0  0  0  0  0  0  0  0  0  0  0  0
  -17.4506   13.8997   24.3382 H   0  0  0  0  0  0  0  0  0  0  0  0
  -18.8192   13.3085   25.9088 C   0  0  0  0  0  0  0  0  0  0  0  0
  -18.0376   12.9177   26.5709 H   0  0  0  0  0  0  0  0  0  0  0  0
  -19.2539   12.4768   25.3436 H   0  0  0  0  0  0  0  0  0  0  0  0
  -19.8553   13.9166   26.6851 O   0  0  0  0  0  0  0  0  0  0  0  0
  -20.4090   13.0079   27.6276 C   0  0  0  0  0  0  0  0  0  0  0  0
  -21.2004   13.5227   28.1784 H   0  0  0  0  0  0  0  0  0  0  0  0
  -19.6442   12.6810   28.3379 H   0  0  0  0  0  0  0  0  0  0  0  0
  -20.8430   12.1433   27.1166 H   0  0  0  0  0  0  0  0  0  0  0  0
  -16.3721   15.5318   25.9051 N   0  0  0  0  0  0  0  0  0  0  0  0
  -16.2018   16.6814   26.5067 C   0  0  0  0  0  0  0  0  0  0  0  0
  -15.2623   17.0239   26.8570 H   0  0  0  0  0  0  0  0  0  0  0  0
  1  2  1  0
  2  3  2  0
  2 18  1  0
  3  4  1  0
  3  5  1  0
  5  6  1  0
  5 17  1  0
  6  7  1  0
  6  8  1  0
  6  9  1  0
  9 10  1  0
  9 11  1  0
  9 12  1  0
 12 13  1  0
 13 14  1  0
 13 15  1  0
 13 16  1  0
 17 18  2  0
 18 19  1  0
M  END
$$$$
