
     RDKit          3D

 20 20  0  0  0  0  0  0  0  0999 V2000
  -20.6793   14.5684   28.0740 O   0  0  0  0  0  0  0  0  0  0  0  0
  -20.3212   13.7327   27.2211 C   0  0  0  0  0  0  0  0  0  0  0  0
  -19.4535   14.1410   26.1899 N   0  0  0  0  0  0  0  0  0  0  0  0
  -18.9962   15.5266   26.1476 C   0  0  0  0  0  0  0  0  0  0  0  0
  -17.9035   15.5492   26.2000 H   0  0  0  0  0  0  0  0  0  0  0  0
  -19.3844   16.1183   26.9814 H   0  0  0  0  0  0  0  0  0  0  0  0
  -19.3383   15.9905   25.2169 H   0  0  0  0  0  0  0  0  0  0  0  0
  -19.0323   13.2292   25.1951 C   0  0  0  0  0  0  0  0  0  0  0  0
  -18.1269   13.6987   24.0906 C   0  0  0  0  0  0  0  0  0  0  0  0
  -18.6056   14.4924   23.5077 H   0  0  0  0  0  0  0  0  0  0  0  0
  -17.8824   12.8896   23.3937 H   0  0  0  0  0  0  0  0  0  0  0  0
  -17.1812   14.0727   24.4939 H   0  0  0  0  0  0  0  0  0  0  0  0
  -19.4430   11.9264   25.2572 C   0  0  0  0  0  0  0  0  0  0  0  0
  -19.1259   11.2366   24.5182 H   0  0  0  0  0  0  0  0  0  0  0  0
  -20.3012   11.4628   26.2905 C   0  0  0  0  0  0  0  0  0  0  0  0
  -20.6081   10.4490   26.3086 H   0  0  0  0  0  0  0  0  0  0  0  0
  -20.7361   12.3359   27.2429 C   0  0  0  0  0  0  0  0  0  0  0  0
  -21.5743   11.9641   28.2647 N   0  0  0  0  0  0  0  0  0  0  0  0
  -21.9082   11.0153   28.3535 H   0  0  0  0  0  0  0  0  0  0  0  0
  -21.8465   12.6823   28.9319 H   0  0  0  0  0  0  0  0  0  0  0  0
  1  2  2  0
  2  3  1  0
  2 17  1  0
  3  4  1  0
  3  8  1  0
  4  5  1  0
  4  6  1  0
  4  7  1  0
  8  9  1  0
  8 13  2  0
  9 10  1  0
  9 11  1  0
  9 12  1  0
 13 14  1  0
 13 15  1  0
 15 16  1  0
 15 17  2  0
 17 18  1  0
 18 19  1  0
 18 20  1  0
M  END
$$$$
