
     RDKit          3D

 23 24  0  0  0  0  0  0  0  0999 V2000
  -25.5982   17.3329   28.2724 C   0  0  0  0  0  0  0  0  0  0  0  0
  -26.4199   16.7979   27.7891 H   0  0  0  0  0  0  0  0  0  0  0  0
  -24.9113   17.7250   27.5188 H   0  0  0  0  0  0  0  0  0  0  0  0
  -26.0028   18.1467   28.8787 H   0  0  0  0  0  0  0  0  0  0  0  0
  -24.8682   16.4360   29.1262 N   0  0  0  0  0  0  0  0  0  0  0  0
  -24.0325   16.9296   30.0518 N   0  0  0  0  0  0  0  0  0  0  0  0
  -23.4858   15.9159   30.6801 N   0  0  0  0  0  0  0  0  0  0  0  0
  -23.9962   14.7916   30.1368 C   0  0  0  0  0  0  0  0  0  0  0  0
  -24.8718   15.1026   29.1678 C   0  0  0  0  0  0  0  0  0  0  0  0
  -25.6637   14.1495   28.3470 C   0  0  0  0  0  0  0  0  0  0  0  0
  -26.7000   14.1698   28.7085 H   0  0  0  0  0  0  0  0  0  0  0  0
  -25.6865   14.4691   27.3007 H   0  0  0  0  0  0  0  0  0  0  0  0
  -25.1109   12.7130   28.5145 C   0  0  0  0  0  0  0  0  0  0  0  0
  -24.0202   12.4250   27.4780 C   0  0  0  0  0  0  0  0  0  0  0  0
  -24.3926   12.2160   26.3020 O   0  0  0  0  0  0  0  0  0  0  0  0
  -22.8361   12.3746   27.8748 O   0  0  0  0  0  0  0  0  0  0  0  0
  -24.6846   12.4150   29.9755 C   0  0  0  0  0  0  0  0  0  0  0  0
  -25.5824   12.4645   30.6072 H   0  0  0  0  0  0  0  0  0  0  0  0
  -24.2973   11.3937   30.0709 H   0  0  0  0  0  0  0  0  0  0  0  0
  -23.6397   13.4103   30.5280 C   0  0  0  0  0  0  0  0  0  0  0  0
  -22.6447   13.1711   30.1357 H   0  0  0  0  0  0  0  0  0  0  0  0
  -23.5898   13.3218   31.6193 H   0  0  0  0  0  0  0  0  0  0  0  0
  -25.9205   12.0159   28.2580 H   0  0  0  0  0  0  0  0  0  0  0  0
  1  2  1  0
  1  3  1  0
  1  4  1  0
  1  5  1  0
  5  6  1  0
  5  9  1  0
  6  7  2  0
  7  8  1  0
  8  9  2  0
  8 20  1  0
  9 10  1  0
 10 11  1  0
 10 12  1  0
 10 13  1  0
 13 14  1  0
 13 17  1  0
 13 23  1  0
 14 15  1  0
 14 16  2  0
 17 18  1  0
 17 19  1  0
 17 20  1  0
 20 21  1  0
 20 22  1  0
M  END
$$$$
