
     RDKit          3D

 19 19  0  0  0  0  0  0  0  0999 V2000
  -14.5410   18.4687   27.5456 Br  0  0  0  0  0  0  0  0  0  0  0  0
  -16.1125   17.6047   27.0279 C   0  0  0  0  0  0  0  0  0  0  0  0
  -16.2394   16.4287   26.3767 C   0  0  0  0  0  0  0  0  0  0  0  0
  -15.5191   15.7448   26.0085 H   0  0  0  0  0  0  0  0  0  0  0  0
  -17.5680   16.2308   26.2299 N   0  0  0  0  0  0  0  0  0  0  0  0
  -18.2429   15.1106   25.6052 C   0  0  0  0  0  0  0  0  0  0  0  0
  -19.1315   15.5070   25.1014 H   0  0  0  0  0  0  0  0  0  0  0  0
  -17.5624   14.7094   24.8469 H   0  0  0  0  0  0  0  0  0  0  0  0
  -18.6133   14.0368   26.6169 C   0  0  0  0  0  0  0  0  0  0  0  0
  -19.3822   14.3927   27.3126 H   0  0  0  0  0  0  0  0  0  0  0  0
  -17.7210   13.7566   27.1874 H   0  0  0  0  0  0  0  0  0  0  0  0
  -19.0851   12.8800   25.9203 O   0  0  0  0  0  0  0  0  0  0  0  0
  -19.4242   11.8289   26.8151 C   0  0  0  0  0  0  0  0  0  0  0  0
  -19.7630   10.9720   26.2272 H   0  0  0  0  0  0  0  0  0  0  0  0
  -20.2355   12.1397   27.4796 H   0  0  0  0  0  0  0  0  0  0  0  0
  -18.5509   11.5283   27.4015 H   0  0  0  0  0  0  0  0  0  0  0  0
  -18.2952   17.2514   26.7644 N   0  0  0  0  0  0  0  0  0  0  0  0
  -17.4020   18.0768   27.2475 C   0  0  0  0  0  0  0  0  0  0  0  0
  -17.6489   18.9838   27.7367 H   0  0  0  0  0  0  0  0  0  0  0  0
  1  2  1  0
  2  3  2  0
  2 18  1  0
  3  4  1  0
  3  5  1  0
  5  6  1  0
  5 17  1  0
  6  7  1  0
  6  8  1  0
  6  9  1  0
  9 10  1  0
  9 11  1  0
  9 12  1  0
 12 13  1  0
 13 14  1  0
 13 15  1  0
 13 16  1  0
 17 18  2  0
 18 19  1  0
M  END
$$$$
