
     RDKit          3D

 35 37  0  0  0  0  0  0  0  0999 V2000
  -25.2580   10.0739   33.0503 F   0  0  0  0  0  0  0  0  0  0  0  0
  -24.6431   10.5455   31.9563 C   0  0  0  0  0  0  0  0  0  0  0  0
  -23.7314    9.7318   31.2953 C   0  0  0  0  0  0  0  0  0  0  0  0
  -23.5316    8.7564   31.6556 H   0  0  0  0  0  0  0  0  0  0  0  0
  -23.0913   10.2204   30.1602 C   0  0  0  0  0  0  0  0  0  0  0  0
  -22.3988    9.6052   29.6558 H   0  0  0  0  0  0  0  0  0  0  0  0
  -23.3640   11.5232   29.7058 C   0  0  0  0  0  0  0  0  0  0  0  0
  -22.7150   12.0226   28.5836 N   0  0  0  0  0  0  0  0  0  0  0  0
  -22.4969   11.2200   27.3707 C   0  0  0  0  0  0  0  0  0  0  0  0
  -22.8137   10.1778   27.4788 H   0  0  0  0  0  0  0  0  0  0  0  0
  -23.1104   11.6473   26.5677 H   0  0  0  0  0  0  0  0  0  0  0  0
  -21.0179   11.2694   26.9556 C   0  0  0  0  0  0  0  0  0  0  0  0
  -20.8820   10.7357   26.0121 H   0  0  0  0  0  0  0  0  0  0  0  0
  -20.4001   10.7667   27.7089 H   0  0  0  0  0  0  0  0  0  0  0  0
  -20.5397   12.6558   26.8678 N   0  0  0  0  0  0  0  0  0  0  0  0
  -19.9316   13.2092   25.7657 C   0  0  0  0  0  0  0  0  0  0  0  0
  -19.5671   14.3694   25.8187 O   0  0  0  0  0  0  0  0  0  0  0  0
  -19.7313   12.3869   24.5513 C   0  0  0  0  0  0  0  0  0  0  0  0
  -20.6429   12.1925   23.9945 H   0  0  0  0  0  0  0  0  0  0  0  0
  -18.7257   11.2571   24.5585 C   0  0  0  0  0  0  0  0  0  0  0  0
  -18.1488   11.0880   25.4609 H   0  0  0  0  0  0  0  0  0  0  0  0
  -18.9773   10.3529   24.0179 H   0  0  0  0  0  0  0  0  0  0  0  0
  -18.4445   12.4976   23.7668 C   0  0  0  0  0  0  0  0  0  0  0  0
  -17.6682   13.1607   24.1331 H   0  0  0  0  0  0  0  0  0  0  0  0
  -18.5024   12.4346   22.6868 H   0  0  0  0  0  0  0  0  0  0  0  0
  -20.7589   13.4428   28.0879 C   0  0  0  0  0  0  0  0  0  0  0  0
  -20.1290   12.9986   28.8673 H   0  0  0  0  0  0  0  0  0  0  0  0
  -20.4379   14.4814   27.9598 H   0  0  0  0  0  0  0  0  0  0  0  0
  -22.2339   13.4123   28.5253 C   0  0  0  0  0  0  0  0  0  0  0  0
  -22.8487   13.9687   27.8082 H   0  0  0  0  0  0  0  0  0  0  0  0
  -22.3051   13.9214   29.4928 H   0  0  0  0  0  0  0  0  0  0  0  0
  -24.3065   12.3157   30.3814 C   0  0  0  0  0  0  0  0  0  0  0  0
  -24.5501   13.2784   30.0170 H   0  0  0  0  0  0  0  0  0  0  0  0
  -24.9438   11.8275   31.5180 C   0  0  0  0  0  0  0  0  0  0  0  0
  -25.6537   12.4149   32.0386 H   0  0  0  0  0  0  0  0  0  0  0  0
  1  2  1  0
  2  3  1  0
  2 34  2  0
  3  4  1  0
  3  5  2  0
  5  6  1  0
  5  7  1  0
  7  8  1  0
  7 32  2  0
  8  9  1  0
  8 29  1  0
  9 10  1  0
  9 11  1  0
  9 12  1  0
 12 13  1  0
 12 14  1  0
 12 15  1  0
 15 16  1  0
 15 26  1  0
 16 17  2  0
 16 18  1  0
 18 19  1  0
 18 20  1  0
 18 23  1  0
 20 21  1  0
 20 22  1  0
 20 23  1  0
 23 24  1  0
 23 25  1  0
 26 27  1  0
 26 28  1  0
 26 29  1  0
 29 30  1  0
 29 31  1  0
 32 33  1  0
 32 34  1  0
 34 35  1  0
M  END
$$$$
