
     RDKit          3D

 28 29  0  0  0  0  0  0  0  0999 V2000
  -22.9878    9.3490   32.8277 O   0  0  0  0  0  0  0  0  0  0  0  0
  -23.0384   10.5352   33.1080 C   0  0  0  0  0  0  0  0  0  0  0  0
  -22.3031   10.9993   34.0986 N   0  0  0  0  0  0  0  0  0  0  0  0
  -21.7260   10.3311   34.5820 H   0  0  0  0  0  0  0  0  0  0  0  0
  -22.3264   11.9704   34.3562 H   0  0  0  0  0  0  0  0  0  0  0  0
  -23.8968   11.5431   32.3911 C   0  0  0  0  0  0  0  0  0  0  0  0
  -24.4812   11.0227   31.6242 H   0  0  0  0  0  0  0  0  0  0  0  0
  -24.6050   11.9674   33.1131 H   0  0  0  0  0  0  0  0  0  0  0  0
  -23.0444   12.6381   31.7638 C   0  0  0  0  0  0  0  0  0  0  0  0
  -22.2219   12.2130   31.1784 H   0  0  0  0  0  0  0  0  0  0  0  0
  -22.5825   13.2728   32.5302 H   0  0  0  0  0  0  0  0  0  0  0  0
  -23.8290   13.4974   30.8973 N   0  0  0  0  0  0  0  0  0  0  0  0
  -24.3466   14.7335   31.2086 C   0  0  0  0  0  0  0  0  0  0  0  0
  -24.1735   15.3818   32.5355 C   0  0  0  0  0  0  0  0  0  0  0  0
  -24.5847   16.3955   32.5217 H   0  0  0  0  0  0  0  0  0  0  0  0
  -23.1151   15.4527   32.8013 H   0  0  0  0  0  0  0  0  0  0  0  0
  -24.6986   14.8166   33.3114 H   0  0  0  0  0  0  0  0  0  0  0  0
  -24.9897   15.2477   30.2137 N   0  0  0  0  0  0  0  0  0  0  0  0
  -24.9035   14.3246   29.1953 C   0  0  0  0  0  0  0  0  0  0  0  0
  -24.1817   13.2235   29.6092 C   0  0  0  0  0  0  0  0  0  0  0  0
  -23.9324   12.1210   28.7788 C   0  0  0  0  0  0  0  0  0  0  0  0
  -23.3787   11.2858   29.1229 H   0  0  0  0  0  0  0  0  0  0  0  0
  -24.4389   12.1608   27.4888 C   0  0  0  0  0  0  0  0  0  0  0  0
  -24.2735   11.3494   26.8292 H   0  0  0  0  0  0  0  0  0  0  0  0
  -25.1784   13.2807   27.0449 C   0  0  0  0  0  0  0  0  0  0  0  0
  -25.5593   13.2949   26.0547 H   0  0  0  0  0  0  0  0  0  0  0  0
  -25.4118   14.3573   27.8898 C   0  0  0  0  0  0  0  0  0  0  0  0
  -25.9651   15.1987   27.5680 H   0  0  0  0  0  0  0  0  0  0  0  0
  1  2  2  0
  2  3  1  0
  2  6  1  0
  3  4  1  0
  3  5  1  0
  6  7  1  0
  6  8  1  0
  6  9  1  0
  9 10  1  0
  9 11  1  0
  9 12  1  0
 12 13  1  0
 12 20  1  0
 13 14  1  0
 13 18  2  0
 14 15  1  0
 14 16  1  0
 14 17  1  0
 18 19  1  0
 19 20  1  0
 19 27  2  0
 20 21  2  0
 21 22  1  0
 21 23  1  0
 23 24  1  0
 23 25  2  0
 25 26  1  0
 25 27  1  0
 27 28  1  0
M  END
$$$$
