
     RDKit          3D

 24 24  0  0  0  0  0  0  0  0999 V2000
  -25.0439   17.3364   29.6619 O   0  0  0  0  0  0  0  0  0  0  0  0
  -25.1218   16.9362   28.7774 H   0  0  0  0  0  0  0  0  0  0  0  0
  -24.3414   16.4081   30.4799 C   0  0  0  0  0  0  0  0  0  0  0  0
  -23.3741   16.1954   30.0146 H   0  0  0  0  0  0  0  0  0  0  0  0
  -24.1666   16.8858   31.4488 H   0  0  0  0  0  0  0  0  0  0  0  0
  -25.1593   15.1259   30.6819 C   0  0  0  0  0  0  0  0  0  0  0  0
  -26.1083   15.3409   31.1872 H   0  0  0  0  0  0  0  0  0  0  0  0
  -24.6085   14.4702   31.3681 H   0  0  0  0  0  0  0  0  0  0  0  0
  -25.3726   14.3991   29.4108 N   0  0  0  0  0  0  0  0  0  0  0  0
  -26.5540   14.8059   28.6503 C   0  0  0  0  0  0  0  0  0  0  0  0
  -27.1904   15.4922   29.2216 H   0  0  0  0  0  0  0  0  0  0  0  0
  -27.1713   13.9370   28.3976 H   0  0  0  0  0  0  0  0  0  0  0  0
  -26.2591   15.3238   27.7312 H   0  0  0  0  0  0  0  0  0  0  0  0
  -24.4975   13.4115   29.0291 C   0  0  0  0  0  0  0  0  0  0  0  0
  -23.9583   13.5781   27.8124 N   0  0  0  0  0  0  0  0  0  0  0  0
  -24.2664   14.4091   27.2955 H   0  0  0  0  0  0  0  0  0  0  0  0
  -23.0528   12.7092   27.2716 C   0  0  0  0  0  0  0  0  0  0  0  0
  -22.6993   12.9560   26.3007 H   0  0  0  0  0  0  0  0  0  0  0  0
  -22.6661   11.6045   27.9936 C   0  0  0  0  0  0  0  0  0  0  0  0
  -21.9639   10.9170   27.5943 H   0  0  0  0  0  0  0  0  0  0  0  0
  -23.2097   11.3789   29.2706 C   0  0  0  0  0  0  0  0  0  0  0  0
  -22.9213   10.5207   29.8288 H   0  0  0  0  0  0  0  0  0  0  0  0
  -24.1203   12.2707   29.7855 C   0  0  0  0  0  0  0  0  0  0  0  0
  -24.5494   12.1019   30.7369 H   0  0  0  0  0  0  0  0  0  0  0  0
  1  2  1  0
  1  3  1  0
  3  4  1  0
  3  5  1  0
  3  6  1  0
  6  7  1  0
  6  8  1  0
  6  9  1  0
  9 10  1  0
  9 14  1  0
 10 11  1  0
 10 12  1  0
 10 13  1  0
 14 15  1  0
 14 23  2  0
 15 16  1  0
 15 17  2  0
 17 18  1  0
 17 19  1  0
 19 20  1  0
 19 21  2  0
 21 22  1  0
 21 23  1  0
 23 24  1  0
M  END
$$$$
