
     RDKit          3D

 23 24  0  0  0  0  0  0  0  0999 V2000
  -23.5639   13.0306   27.1089 C   0  0  0  0  0  0  0  0  0  0  0  0
  -23.5414   12.8848   26.0258 H   0  0  0  0  0  0  0  0  0  0  0  0
  -23.8007   14.0712   27.3425 H   0  0  0  0  0  0  0  0  0  0  0  0
  -24.3084   12.3630   27.5489 H   0  0  0  0  0  0  0  0  0  0  0  0
  -22.2760   12.7236   27.6687 N   0  0  0  0  0  0  0  0  0  0  0  0
  -22.1543   12.5223   28.9891 N   0  0  0  0  0  0  0  0  0  0  0  0
  -20.8907   12.2768   29.2428 N   0  0  0  0  0  0  0  0  0  0  0  0
  -20.2343   12.3233   28.0653 C   0  0  0  0  0  0  0  0  0  0  0  0
  -21.0920   12.5928   27.0682 C   0  0  0  0  0  0  0  0  0  0  0  0
  -20.7663   12.7039   25.6222 C   0  0  0  0  0  0  0  0  0  0  0  0
  -21.1272   11.7960   25.1222 H   0  0  0  0  0  0  0  0  0  0  0  0
  -21.2984   13.5472   25.1714 H   0  0  0  0  0  0  0  0  0  0  0  0
  -19.2334   12.7991   25.4258 C   0  0  0  0  0  0  0  0  0  0  0  0
  -18.7694   14.2587   25.4617 C   0  0  0  0  0  0  0  0  0  0  0  0
  -18.8810   14.8654   26.5502 O   0  0  0  0  0  0  0  0  0  0  0  0
  -18.3501   14.7646   24.3986 O   0  0  0  0  0  0  0  0  0  0  0  0
  -18.4587   11.8689   26.3952 C   0  0  0  0  0  0  0  0  0  0  0  0
  -18.7263   10.8306   26.1547 H   0  0  0  0  0  0  0  0  0  0  0  0
  -17.3768   11.9520   26.2385 H   0  0  0  0  0  0  0  0  0  0  0  0
  -18.7794   12.1264   27.8847 C   0  0  0  0  0  0  0  0  0  0  0  0
  -18.2496   13.0185   28.2373 H   0  0  0  0  0  0  0  0  0  0  0  0
  -18.4296   11.2801   28.4869 H   0  0  0  0  0  0  0  0  0  0  0  0
  -19.0107   12.4682   24.4021 H   0  0  0  0  0  0  0  0  0  0  0  0
  1  2  1  0
  1  3  1  0
  1  4  1  0
  1  5  1  0
  5  6  1  0
  5  9  1  0
  6  7  2  0
  7  8  1  0
  8  9  2  0
  8 20  1  0
  9 10  1  0
 10 11  1  0
 10 12  1  0
 10 13  1  0
 13 14  1  0
 13 17  1  0
 13 23  1  0
 14 15  1  0
 14 16  2  0
 17 18  1  0
 17 19  1  0
 17 20  1  0
 20 21  1  0
 20 22  1  0
M  END
$$$$
