
     RDKit          3D

 27 28  0  0  0  0  0  0  0  0999 V2000
  -21.0447   12.2214   27.8019 O   0  0  0  0  0  0  0  0  0  0  0  0
  -22.4645   12.2781   27.7721 C   0  0  0  0  0  0  0  0  0  0  0  0
  -22.8034   12.6695   28.7366 H   0  0  0  0  0  0  0  0  0  0  0  0
  -22.8975   11.2794   27.6490 H   0  0  0  0  0  0  0  0  0  0  0  0
  -22.8170   12.9633   26.9941 H   0  0  0  0  0  0  0  0  0  0  0  0
  -20.3829   11.7368   26.6932 C   0  0  0  0  0  0  0  0  0  0  0  0
  -19.5374   12.6446   26.0396 C   0  0  0  0  0  0  0  0  0  0  0  0
  -18.8662   12.2002   24.8905 C   0  0  0  0  0  0  0  0  0  0  0  0
  -18.0077   12.9591   24.0598 N   0  0  0  0  0  0  0  0  0  0  0  0
  -17.5280   12.4284   23.3227 H   0  0  0  0  0  0  0  0  0  0  0  0
  -17.6707   14.2746   24.0023 C   0  0  0  0  0  0  0  0  0  0  0  0
  -16.9095   14.5279   23.0977 O   0  0  0  0  0  0  0  0  0  0  0  0
  -18.2507   15.3086   24.9031 C   0  0  0  0  0  0  0  0  0  0  0  0
  -17.6402   16.2133   24.7935 H   0  0  0  0  0  0  0  0  0  0  0  0
  -19.2645   15.5534   24.5677 H   0  0  0  0  0  0  0  0  0  0  0  0
  -18.2029   14.8584   26.3403 C   0  0  0  0  0  0  0  0  0  0  0  0
  -17.2763   14.3156   26.5660 H   0  0  0  0  0  0  0  0  0  0  0  0
  -18.2188   15.7457   26.9841 H   0  0  0  0  0  0  0  0  0  0  0  0
  -19.4178   14.0140   26.6739 C   0  0  0  0  0  0  0  0  0  0  0  0
  -20.3330   14.5763   26.4465 H   0  0  0  0  0  0  0  0  0  0  0  0
  -19.3826   13.8927   27.7645 H   0  0  0  0  0  0  0  0  0  0  0  0
  -19.0356   10.8972   24.4164 C   0  0  0  0  0  0  0  0  0  0  0  0
  -18.5209   10.5779   23.5470 H   0  0  0  0  0  0  0  0  0  0  0  0
  -19.8751   10.0150   25.0832 C   0  0  0  0  0  0  0  0  0  0  0  0
  -19.9998    9.0261   24.7233 H   0  0  0  0  0  0  0  0  0  0  0  0
  -20.5510   10.4301   26.2249 C   0  0  0  0  0  0  0  0  0  0  0  0
  -21.1883    9.7521   26.7276 H   0  0  0  0  0  0  0  0  0  0  0  0
  1  2  1  0
  1  6  1  0
  2  3  1  0
  2  4  1  0
  2  5  1  0
  6  7  1  0
  6 26  2  0
  7  8  2  0
  7 19  1  0
  8  9  1  0
  8 22  1  0
  9 10  1  0
  9 11  1  0
 11 12  2  0
 11 13  1  0
 13 14  1  0
 13 15  1  0
 13 16  1  0
 16 17  1  0
 16 18  1  0
 16 19  1  0
 19 20  1  0
 19 21  1  0
 22 23  1  0
 22 24  2  0
 24 25  1  0
 24 26  1  0
 26 27  1  0
M  END
$$$$
