
     RDKit          3D

 29 30  0  0  0  0  0  0  0  0999 V2000
  -22.6142   10.9777   29.9291 F   0  0  0  0  0  0  0  0  0  0  0  0
  -23.5174   11.7492   29.3053 C   0  0  0  0  0  0  0  0  0  0  0  0
  -24.5595   12.3196   30.0399 C   0  0  0  0  0  0  0  0  0  0  0  0
  -24.6852   12.0987   31.5262 C   0  0  0  0  0  0  0  0  0  0  0  0
  -24.3127   11.1014   31.7932 H   0  0  0  0  0  0  0  0  0  0  0  0
  -25.7547   12.0774   31.7760 H   0  0  0  0  0  0  0  0  0  0  0  0
  -23.9732   13.1521   32.3683 C   0  0  0  0  0  0  0  0  0  0  0  0
  -24.0925   14.5642   31.8899 C   0  0  0  0  0  0  0  0  0  0  0  0
  -23.1537   15.2154   31.4787 O   0  0  0  0  0  0  0  0  0  0  0  0
  -25.3248   15.1265   31.9480 N   0  0  0  0  0  0  0  0  0  0  0  0
  -26.0737   14.5747   32.3423 H   0  0  0  0  0  0  0  0  0  0  0  0
  -25.6025   16.4659   31.4950 C   0  0  0  0  0  0  0  0  0  0  0  0
  -25.0616   17.1755   32.1264 H   0  0  0  0  0  0  0  0  0  0  0  0
  -25.2740   16.5757   30.4585 H   0  0  0  0  0  0  0  0  0  0  0  0
  -26.6782   16.6445   31.5676 H   0  0  0  0  0  0  0  0  0  0  0  0
  -22.7248   12.8003   33.1832 C   0  0  0  0  0  0  0  0  0  0  0  0
  -21.9793   13.5746   33.3404 H   0  0  0  0  0  0  0  0  0  0  0  0
  -22.2994   11.8057   33.1299 H   0  0  0  0  0  0  0  0  0  0  0  0
  -24.0331   12.9480   33.8839 C   0  0  0  0  0  0  0  0  0  0  0  0
  -24.1770   13.8178   34.5156 H   0  0  0  0  0  0  0  0  0  0  0  0
  -24.4979   12.0499   34.2747 H   0  0  0  0  0  0  0  0  0  0  0  0
  -25.4869   13.1061   29.3557 C   0  0  0  0  0  0  0  0  0  0  0  0
  -26.2942   13.5531   29.8769 H   0  0  0  0  0  0  0  0  0  0  0  0
  -25.3633   13.3081   27.9805 C   0  0  0  0  0  0  0  0  0  0  0  0
  -26.0750   13.9086   27.4704 H   0  0  0  0  0  0  0  0  0  0  0  0
  -24.3125   12.7290   27.2700 C   0  0  0  0  0  0  0  0  0  0  0  0
  -24.2261   12.8879   26.2248 H   0  0  0  0  0  0  0  0  0  0  0  0
  -23.3796   11.9412   27.9362 C   0  0  0  0  0  0  0  0  0  0  0  0
  -22.5751   11.4921   27.4142 H   0  0  0  0  0  0  0  0  0  0  0  0
  1  2  1  0
  2  3  1  0
  2 28  2  0
  3  4  1  0
  3 22  2  0
  4  5  1  0
  4  6  1  0
  4  7  1  0
  7  8  1  0
  7 16  1  0
  7 19  1  0
  8  9  2  0
  8 10  1  0
 10 11  1  0
 10 12  1  0
 12 13  1  0
 12 14  1  0
 12 15  1  0
 16 17  1  0
 16 18  1  0
 16 19  1  0
 19 20  1  0
 19 21  1  0
 22 23  1  0
 22 24  1  0
 24 25  1  0
 24 26  2  0
 26 27  1  0
 26 28  1  0
 28 29  1  0
M  END
$$$$
