
     RDKit          3D

 19 19  0  0  0  0  0  0  0  0999 V2000
  -19.2348   10.1505   25.0175 Br  0  0  0  0  0  0  0  0  0  0  0  0
  -19.0291   11.9665   25.4145 C   0  0  0  0  0  0  0  0  0  0  0  0
  -19.6339   12.5187   26.5020 C   0  0  0  0  0  0  0  0  0  0  0  0
  -20.2362   11.9422   27.1514 H   0  0  0  0  0  0  0  0  0  0  0  0
  -19.4765   13.9059   26.8008 C   0  0  0  0  0  0  0  0  0  0  0  0
  -20.0144   14.4730   27.7607 O   0  0  0  0  0  0  0  0  0  0  0  0
  -18.6719   14.6691   25.9489 N   0  0  0  0  0  0  0  0  0  0  0  0
  -18.4755   16.0943   26.2197 C   0  0  0  0  0  0  0  0  0  0  0  0
  -18.4602   16.6453   25.2713 H   0  0  0  0  0  0  0  0  0  0  0  0
  -19.3342   16.4918   26.7764 H   0  0  0  0  0  0  0  0  0  0  0  0
  -17.1789   16.3642   26.9810 C   0  0  0  0  0  0  0  0  0  0  0  0
  -17.0605   15.6866   27.8328 H   0  0  0  0  0  0  0  0  0  0  0  0
  -17.1692   17.3882   27.3691 H   0  0  0  0  0  0  0  0  0  0  0  0
  -16.0573   16.2109   26.1190 O   0  0  0  0  0  0  0  0  0  0  0  0
  -16.0252   15.2758   25.8480 H   0  0  0  0  0  0  0  0  0  0  0  0
  -18.0592   14.1049   24.8353 C   0  0  0  0  0  0  0  0  0  0  0  0
  -17.4749   14.7652   24.2422 H   0  0  0  0  0  0  0  0  0  0  0  0
  -18.2272   12.7788   24.5645 C   0  0  0  0  0  0  0  0  0  0  0  0
  -17.7636   12.3395   23.7186 H   0  0  0  0  0  0  0  0  0  0  0  0
  1  2  1  0
  2  3  2  0
  2 18  1  0
  3  4  1  0
  3  5  1  0
  5  6  2  0
  5  7  1  0
  7  8  1  0
  7 16  1  0
  8  9  1  0
  8 10  1  0
  8 11  1  0
 11 12  1  0
 11 13  1  0
 11 14  1  0
 14 15  1  0
 16 17  1  0
 16 18  2  0
 18 19  1  0
M  END
$$$$
