
     RDKit          3D

 19 19  0  0  0  0  0  0  0  0999 V2000
  -19.6414   11.0336   25.9974 Br  0  0  0  0  0  0  0  0  0  0  0  0
  -18.9395   12.7458   25.7527 C   0  0  0  0  0  0  0  0  0  0  0  0
  -18.2969   13.5181   26.6548 C   0  0  0  0  0  0  0  0  0  0  0  0
  -18.0522   13.3587   27.6730 H   0  0  0  0  0  0  0  0  0  0  0  0
  -17.9869   14.6619   26.0054 N   0  0  0  0  0  0  0  0  0  0  0  0
  -17.2830   15.8203   26.5186 C   0  0  0  0  0  0  0  0  0  0  0  0
  -16.7525   15.5032   27.4233 H   0  0  0  0  0  0  0  0  0  0  0  0
  -16.5434   16.1059   25.7632 H   0  0  0  0  0  0  0  0  0  0  0  0
  -18.2291   16.9755   26.8080 C   0  0  0  0  0  0  0  0  0  0  0  0
  -19.0307   16.6727   27.4919 H   0  0  0  0  0  0  0  0  0  0  0  0
  -18.6754   17.3195   25.8685 H   0  0  0  0  0  0  0  0  0  0  0  0
  -17.4866   18.0574   27.3774 O   0  0  0  0  0  0  0  0  0  0  0  0
  -18.3211   19.1687   27.6762 C   0  0  0  0  0  0  0  0  0  0  0  0
  -17.6987   19.9644   28.0934 H   0  0  0  0  0  0  0  0  0  0  0  0
  -19.0766   18.8909   28.4169 H   0  0  0  0  0  0  0  0  0  0  0  0
  -18.8033   19.5409   26.7673 H   0  0  0  0  0  0  0  0  0  0  0  0
  -18.4190   14.6452   24.7135 N   0  0  0  0  0  0  0  0  0  0  0  0
  -18.9925   13.4776   24.5713 C   0  0  0  0  0  0  0  0  0  0  0  0
  -19.4366   13.1513   23.6663 H   0  0  0  0  0  0  0  0  0  0  0  0
  1  2  1  0
  2  3  2  0
  2 18  1  0
  3  4  1  0
  3  5  1  0
  5  6  1  0
  5 17  1  0
  6  7  1  0
  6  8  1  0
  6  9  1  0
  9 10  1  0
  9 11  1  0
  9 12  1  0
 12 13  1  0
 13 14  1  0
 13 15  1  0
 13 16  1  0
 17 18  2  0
 18 19  1  0
M  END
$$$$
