
     RDKit          3D

 29 31  0  0  0  0  0  0  0  0999 V2000
  -23.5438   14.2581   30.6639 O   0  0  0  0  0  0  0  0  0  0  0  0
  -24.0716   13.1815   30.4964 C   0  0  0  0  0  0  0  0  0  0  0  0
  -23.6313   12.3066   29.5506 N   0  0  0  0  0  0  0  0  0  0  0  0
  -24.1506   11.4291   29.4632 H   0  0  0  0  0  0  0  0  0  0  0  0
  -22.5818   12.4160   28.6686 C   0  0  0  0  0  0  0  0  0  0  0  0
  -22.1438   11.1219   27.5958 S   0  0  0  0  0  0  0  0  0  0  0  0
  -20.8803   12.1303   26.9812 C   0  0  0  0  0  0  0  0  0  0  0  0
  -20.9008   13.3581   27.6416 C   0  0  0  0  0  0  0  0  0  0  0  0
  -21.8861   13.5077   28.6096 N   0  0  0  0  0  0  0  0  0  0  0  0
  -19.9516   14.3329   27.2920 C   0  0  0  0  0  0  0  0  0  0  0  0
  -19.9618   15.2664   27.7905 H   0  0  0  0  0  0  0  0  0  0  0  0
  -19.0141   14.0662   26.3045 C   0  0  0  0  0  0  0  0  0  0  0  0
  -18.3009   14.8037   26.0437 H   0  0  0  0  0  0  0  0  0  0  0  0
  -19.0180   12.8133   25.6512 C   0  0  0  0  0  0  0  0  0  0  0  0
  -18.1441   12.4376   24.6615 O   0  0  0  0  0  0  0  0  0  0  0  0
  -17.5917   13.4695   23.8523 C   0  0  0  0  0  0  0  0  0  0  0  0
  -16.9912   14.1619   24.4518 H   0  0  0  0  0  0  0  0  0  0  0  0
  -16.9265   13.0008   23.1210 H   0  0  0  0  0  0  0  0  0  0  0  0
  -18.3741   13.9990   23.2988 H   0  0  0  0  0  0  0  0  0  0  0  0
  -19.9437   11.8401   25.9800 C   0  0  0  0  0  0  0  0  0  0  0  0
  -19.9434   10.9014   25.4903 H   0  0  0  0  0  0  0  0  0  0  0  0
  -25.2175   12.7260   31.3136 C   0  0  0  0  0  0  0  0  0  0  0  0
  -25.0112   11.8250   31.8851 H   0  0  0  0  0  0  0  0  0  0  0  0
  -26.6389   12.9413   30.8504 C   0  0  0  0  0  0  0  0  0  0  0  0
  -26.8218   13.4671   29.9199 H   0  0  0  0  0  0  0  0  0  0  0  0
  -27.3661   12.1699   31.0730 H   0  0  0  0  0  0  0  0  0  0  0  0
  -26.0984   13.7436   31.9969 C   0  0  0  0  0  0  0  0  0  0  0  0
  -26.4555   13.5146   32.9937 H   0  0  0  0  0  0  0  0  0  0  0  0
  -25.8940   14.7962   31.8309 H   0  0  0  0  0  0  0  0  0  0  0  0
  1  2  2  0
  2  3  1  0
  2 22  1  0
  3  4  1  0
  3  5  1  0
  5  6  1  0
  5  9  2  0
  6  7  1  0
  7  8  1  0
  7 20  2  0
  8  9  1  0
  8 10  2  0
 10 11  1  0
 10 12  1  0
 12 13  1  0
 12 14  2  0
 14 15  1  0
 14 20  1  0
 15 16  1  0
 16 17  1  0
 16 18  1  0
 16 19  1  0
 20 21  1  0
 22 23  1  0
 22 24  1  0
 22 27  1  0
 24 25  1  0
 24 26  1  0
 24 27  1  0
 27 28  1  0
 27 29  1  0
M  END
$$$$
