
     RDKit          3D

 27 28  0  0  0  0  0  0  0  0999 V2000
  -19.3070   14.0799   27.6557 F   0  0  0  0  0  0  0  0  0  0  0  0
  -19.0735   13.2742   26.6073 C   0  0  0  0  0  0  0  0  0  0  0  0
  -18.2500   13.6922   25.5427 C   0  0  0  0  0  0  0  0  0  0  0  0
  -17.6254   14.9319   25.4916 N   0  0  0  0  0  0  0  0  0  0  0  0
  -17.1270   15.1917   24.6486 H   0  0  0  0  0  0  0  0  0  0  0  0
  -17.6394   15.9052   26.5697 C   0  0  0  0  0  0  0  0  0  0  0  0
  -18.6759   16.1907   26.7878 H   0  0  0  0  0  0  0  0  0  0  0  0
  -17.2300   15.4520   27.4805 H   0  0  0  0  0  0  0  0  0  0  0  0
  -16.8590   17.1506   26.2787 C   0  0  0  0  0  0  0  0  0  0  0  0
  -17.3247   18.4626   26.3345 C   0  0  0  0  0  0  0  0  0  0  0  0
  -18.6824   18.9472   26.6809 C   0  0  0  0  0  0  0  0  0  0  0  0
  -19.0055   18.5316   27.6413 H   0  0  0  0  0  0  0  0  0  0  0  0
  -19.4025   18.6422   25.9143 H   0  0  0  0  0  0  0  0  0  0  0  0
  -18.7155   20.0388   26.7608 H   0  0  0  0  0  0  0  0  0  0  0  0
  -16.3790   19.3062   26.0303 N   0  0  0  0  0  0  0  0  0  0  0  0
  -15.2900   18.5391   25.7792 N   0  0  0  0  0  0  0  0  0  0  0  0
  -14.3719   18.9389   25.5087 H   0  0  0  0  0  0  0  0  0  0  0  0
  -15.5545   17.2250   25.9263 C   0  0  0  0  0  0  0  0  0  0  0  0
  -14.8210   16.4772   25.7751 H   0  0  0  0  0  0  0  0  0  0  0  0
  -18.0333   12.8108   24.4820 C   0  0  0  0  0  0  0  0  0  0  0  0
  -17.4066   13.0979   23.6790 H   0  0  0  0  0  0  0  0  0  0  0  0
  -18.6400   11.5557   24.4817 C   0  0  0  0  0  0  0  0  0  0  0  0
  -18.4745   10.8913   23.6717 H   0  0  0  0  0  0  0  0  0  0  0  0
  -19.4632   11.1607   25.5387 C   0  0  0  0  0  0  0  0  0  0  0  0
  -19.9189   10.2033   25.5272 H   0  0  0  0  0  0  0  0  0  0  0  0
  -19.6793   12.0257   26.6094 C   0  0  0  0  0  0  0  0  0  0  0  0
  -20.2967   11.7357   27.4210 H   0  0  0  0  0  0  0  0  0  0  0  0
  1  2  1  0
  2  3  1  0
  2 26  2  0
  3  4  1  0
  3 20  2  0
  4  5  1  0
  4  6  1  0
  6  7  1  0
  6  8  1  0
  6  9  1  0
  9 10  1  0
  9 18  2  0
 10 11  1  0
 10 15  2  0
 11 12  1  0
 11 13  1  0
 11 14  1  0
 15 16  1  0
 16 17  1  0
 16 18  1  0
 18 19  1  0
 20 21  1  0
 20 22  1  0
 22 23  1  0
 22 24  2  0
 24 25  1  0
 24 26  1  0
 26 27  1  0
M  END
$$$$
