
     RDKit          3D

 30 31  0  0  0  0  0  0  0  0999 V2000
  -23.9470   11.3579   31.1718 F   0  0  0  0  0  0  0  0  0  0  0  0
  -23.1836   11.6702   30.1147 C   0  0  0  0  0  0  0  0  0  0  0  0
  -21.8028   11.7012   30.2694 C   0  0  0  0  0  0  0  0  0  0  0  0
  -21.3672   11.4844   31.2096 H   0  0  0  0  0  0  0  0  0  0  0  0
  -21.0113   12.0266   29.1726 C   0  0  0  0  0  0  0  0  0  0  0  0
  -19.9591   12.0763   29.2682 H   0  0  0  0  0  0  0  0  0  0  0  0
  -21.6104   12.3110   27.9375 C   0  0  0  0  0  0  0  0  0  0  0  0
  -20.8211   12.6375   26.8423 N   0  0  0  0  0  0  0  0  0  0  0  0
  -20.8444   13.9746   26.2339 C   0  0  0  0  0  0  0  0  0  0  0  0
  -21.2862   13.9018   25.2326 H   0  0  0  0  0  0  0  0  0  0  0  0
  -21.4430   14.6883   26.8108 H   0  0  0  0  0  0  0  0  0  0  0  0
  -19.4127   14.5251   26.1417 C   0  0  0  0  0  0  0  0  0  0  0  0
  -19.0179   14.7053   27.1490 H   0  0  0  0  0  0  0  0  0  0  0  0
  -19.4215   15.4883   25.6212 H   0  0  0  0  0  0  0  0  0  0  0  0
  -18.4960   13.5752   25.4980 N   0  0  0  0  0  0  0  0  0  0  0  0
  -17.7615   13.9909   24.4212 C   0  0  0  0  0  0  0  0  0  0  0  0
  -17.9404   15.0494   23.8427 O   0  0  0  0  0  0  0  0  0  0  0  0
  -16.7896   13.1702   24.0152 N   0  0  0  0  0  0  0  0  0  0  0  0
  -17.1143   12.2443   23.7169 H   0  0  0  0  0  0  0  0  0  0  0  0
  -16.0152   13.6058   23.5097 H   0  0  0  0  0  0  0  0  0  0  0  0
  -18.4987   12.2323   26.1055 C   0  0  0  0  0  0  0  0  0  0  0  0
  -17.8875   11.5283   25.5372 H   0  0  0  0  0  0  0  0  0  0  0  0
  -18.0624   12.3337   27.1056 H   0  0  0  0  0  0  0  0  0  0  0  0
  -19.9259   11.6670   26.1985 C   0  0  0  0  0  0  0  0  0  0  0  0
  -19.9069   10.6956   26.7039 H   0  0  0  0  0  0  0  0  0  0  0  0
  -20.3046   11.4781   25.1859 H   0  0  0  0  0  0  0  0  0  0  0  0
  -23.0083   12.2783   27.8036 C   0  0  0  0  0  0  0  0  0  0  0  0
  -23.4666   12.4846   26.8742 H   0  0  0  0  0  0  0  0  0  0  0  0
  -23.7991   11.9536   28.9015 C   0  0  0  0  0  0  0  0  0  0  0  0
  -24.8542   11.9189   28.8220 H   0  0  0  0  0  0  0  0  0  0  0  0
  1  2  1  0
  2  3  1  0
  2 29  2  0
  3  4  1  0
  3  5  2  0
  5  6  1  0
  5  7  1  0
  7  8  1  0
  7 27  2  0
  8  9  1  0
  8 24  1  0
  9 10  1  0
  9 11  1  0
  9 12  1  0
 12 13  1  0
 12 14  1  0
 12 15  1  0
 15 16  1  0
 15 21  1  0
 16 17  2  0
 16 18  1  0
 18 19  1  0
 18 20  1  0
 21 22  1  0
 21 23  1  0
 21 24  1  0
 24 25  1  0
 24 26  1  0
 27 28  1  0
 27 29  1  0
 29 30  1  0
M  END
$$$$
