@<TRIPOS>MOLECULE
*****
   28    29     0     0     0
SMALL
USER_CHARGES

@<TRIPOS>ATOM
      1 C1          0.7843   -0.5196    0.5399 C.ar      1 UNL1       -0.1500
      2 C2          2.8804   -1.7065    0.5723 C.ar      1 UNL1       -0.1500
      3 C3          1.4267    0.2118   -2.2002 C.ar      1 UNL1       -0.1500
      4 C4          2.6521   -1.8586   -2.3234 C.ar      1 UNL1       -0.1500
      5 C5          0.7101   -0.6752    1.9167 C.ar      1 UNL1        0.2110
      6 C6          2.7532   -1.8320    1.9483 C.ar      1 UNL1        0.2110
      7 C7          1.5424    0.3267   -3.5782 C.ar      1 UNL1        0.2110
      8 C8          2.7367   -1.6914   -3.6983 C.ar      1 UNL1        0.2110
      9 C9          1.8830   -1.0424   -0.1354 C.ar      1 UNL1        0.0000
     10 C10         1.9890   -0.8943   -1.5703 C.ar      1 UNL1        0.0000
     11 C11         1.5790   -1.4653    4.0222 C.3       1 UNL1        0.4880
     12 C12         2.2901   -0.4684   -5.7278 C.3       1 UNL1        0.4880
     13 N1          1.6847   -1.3190    2.5735 N.ar      1 UNL1       -0.2100
     14 N2          2.1863   -0.6166   -4.2792 N.ar      1 UNL1       -0.2100
     15 H1         -0.0089    0.0028    0.0132 H         1 UNL1        0.1500
     16 H2          3.7490   -2.1238    0.0715 H         1 UNL1        0.1500
     17 H3          0.9041    0.9798   -1.6375 H         1 UNL1        0.1500
     18 H4          3.0997   -2.7321   -1.8586 H         1 UNL1        0.1500
     19 H5         -0.1148   -0.2951    2.5067 H         1 UNL1        0.1500
     20 H6          3.4901   -2.3350    2.5625 H         1 UNL1        0.1500
     21 H7          1.1304    1.1597   -4.1344 H         1 UNL1        0.1500
     22 H8          3.2364   -2.4011   -4.3462 H         1 UNL1        0.1500
     23 H9          1.0484   -2.3948    4.2463 H         1 UNL1        0.0000
     24 H10         2.5733   -1.4950    4.4765 H         1 UNL1        0.0000
     25 H11         1.0290   -0.6168    4.4392 H         1 UNL1        0.0000
     26 H12         3.2026    0.0864   -5.9624 H         1 UNL1        0.0000
     27 H13         2.3261   -1.4492   -6.2103 H         1 UNL1        0.0000
     28 H14         1.4200    0.0758   -6.1060 H         1 UNL1        0.0000
@<TRIPOS>BOND
     1    1    5 ar
     2    1    9 ar
     3    2    6 ar
     4    2    9 ar
     5    3    7 ar
     6    3   10 ar
     7    4    8 ar
     8    4   10 ar
     9    5   13 ar
    10    6   13 ar
    11    7   14 ar
    12    8   14 ar
    13    9   10 1
    14   11   13 1
    15   12   14 1
    16    1   15 1
    17    2   16 1
    18    3   17 1
    19    4   18 1
    20    5   19 1
    21    6   20 1
    22    7   21 1
    23    8   22 1
    24   11   23 1
    25   11   24 1
    26   11   25 1
    27   12   26 1
    28   12   27 1
    29   12   28 1
