@<TRIPOS>MOLECULE
*****
   26    25     0     0     0
SMALL
USER_CHARGES

@<TRIPOS>ATOM
      1 C1          0.2643   -0.9249   -0.5272 C.3       1 UNL1        0.0000
      2 C2          1.0909   -1.8221    0.3955 C.3       1 UNL1        0.0000
      3 C3          1.0311   -0.5840   -1.8058 C.3       1 UNL1        0.0000
      4 C4          0.3372   -2.1355    1.6888 C.3       1 UNL1        0.0000
      5 C5          0.1892    0.2791   -2.7337 C.3       1 UNL1        0.5030
      6 C6          1.1794   -2.9986    2.6164 C.3       1 UNL1        0.5030
      7 N1          0.9540    0.5459   -3.9756 N.4       1 UNL1       -0.8530
      8 N2          0.3934   -3.3136    3.8335 N.4       1 UNL1       -0.8530
      9 H1         -0.6748   -1.4293   -0.7856 H         1 UNL1        0.0000
     10 H2          0.0000    0.0000    0.0000 H         1 UNL1        0.0000
     11 H3          1.3347   -2.7573   -0.1231 H         1 UNL1        0.0000
     12 H4          2.0404   -1.3279    0.6346 H         1 UNL1        0.0000
     13 H5          1.9586   -0.0577   -1.5483 H         1 UNL1        0.0000
     14 H6          1.3195   -1.5098   -2.3189 H         1 UNL1        0.0000
     15 H7         -0.6013   -2.6516    1.4510 H         1 UNL1        0.0000
     16 H8          0.0692   -1.1990    2.1937 H         1 UNL1        0.0000
     17 H9         -0.7364   -0.2217   -3.0323 H         1 UNL1        0.0000
     18 H10        -0.0444    1.2514   -2.2899 H         1 UNL1        0.0000
     19 H11         1.4483   -3.9539    2.1561 H         1 UNL1        0.0000
     20 H12         2.0846   -2.4817    2.9483 H         1 UNL1        0.0000
     21 H13         1.9068    0.1718   -3.9083 H         1 UNL1        0.4500
     22 H14         1.0228    1.5538   -4.1550 H         1 UNL1        0.4500
     23 H15         0.5009    0.1112   -4.7870 H         1 UNL1        0.4500
     24 H16        -0.4869   -3.7818    3.5919 H         1 UNL1        0.4500
     25 H17         0.1638   -2.4595    4.3536 H         1 UNL1        0.4500
     26 H18         0.9185   -3.9332    4.4603 H         1 UNL1        0.4500
@<TRIPOS>BOND
     1    1    2 1
     2    1    3 1
     3    2    4 1
     4    3    5 1
     5    4    6 1
     6    5    7 1
     7    6    8 1
     8    1    9 1
     9    1   10 1
    10    2   11 1
    11    2   12 1
    12    3   13 1
    13    3   14 1
    14    4   15 1
    15    4   16 1
    16    5   17 1
    17    5   18 1
    18    6   19 1
    19    6   20 1
    20    7   21 1
    21    7   22 1
    22    7   23 1
    23    8   24 1
    24    8   25 1
    25    8   26 1
