@<TRIPOS>MOLECULE
*****
   24    24     0     0     0
SMALL
USER_CHARGES

@<TRIPOS>ATOM
      1 C1          1.8851   -1.0363   -0.1124 C.ar      1 UNL1       -0.1500
      2 C2          0.8066   -0.4630    0.5610 C.ar      1 UNL1       -0.1500
      3 C3          2.8783   -1.6520    2.0022 C.ar      1 UNL1       -0.1500
      4 C4          1.7997   -1.0786    2.6757 C.ar      1 UNL1       -0.1500
      5 C5          2.9210   -1.6309    0.6081 C.ar      1 UNL1       -0.1435
      6 C6          0.7638   -0.4841    1.9551 C.ar      1 UNL1       -0.1435
      7 C7          4.0745   -2.2440   -0.1111 C.3       1 UNL1        0.6465
      8 C8         -0.3890    0.1306    2.6744 C.3       1 UNL1        0.6465
      9 N1          5.1916   -1.2908   -0.3577 N.4       1 UNL1       -0.8530
     10 N2         -0.1843    1.5696    2.9979 N.4       1 UNL1       -0.8530
     11 H1          1.9098   -1.0158   -1.1988 H         1 UNL1        0.1500
     12 H2          0.0048   -0.0006   -0.0085 H         1 UNL1        0.1500
     13 H3          3.6818   -2.1121    2.5715 H         1 UNL1        0.1500
     14 H4          1.7742   -1.0996    3.7620 H         1 UNL1        0.1500
     15 H5          4.5045   -3.0826    0.4537 H         1 UNL1        0.0000
     16 H6          3.7778   -2.6318   -1.0953 H         1 UNL1        0.0000
     17 H7         -1.3118    0.0767    2.0810 H         1 UNL1        0.0000
     18 H8         -0.5855   -0.3748    3.6298 H         1 UNL1        0.0000
     19 H9          5.6625   -1.0512    0.5190 H         1 UNL1        0.4500
     20 H10         4.8417   -0.4265   -0.7803 H         1 UNL1        0.4500
     21 H11         5.8831   -1.7007   -0.9916 H         1 UNL1        0.4500
     22 H12        -0.1508    2.1311    2.1427 H         1 UNL1        0.4500
     23 H13         0.6953    1.7041    3.5043 H         1 UNL1        0.4500
     24 H14        -0.9478    1.9208    3.5824 H         1 UNL1        0.4500
@<TRIPOS>BOND
     1    1    2 ar
     2    1    5 ar
     3    2    6 ar
     4    3    4 ar
     5    3    5 ar
     6    4    6 ar
     7    5    7 1
     8    6    8 1
     9    7    9 1
    10    8   10 1
    11    1   11 1
    12    2   12 1
    13    3   13 1
    14    4   14 1
    15    7   15 1
    16    7   16 1
    17    8   17 1
    18    8   18 1
    19    9   19 1
    20    9   20 1
    21    9   21 1
    22   10   22 1
    23   10   23 1
    24   10   24 1
