
     RDKit          3D

 24 24  0  0  0  0  0  0  0  0999 V2000
  -22.5793   12.7048   26.0588 O   0  0  0  0  0  0  0  0  0  0  0  0
  -21.7154   12.8654   26.9119 C   0  0  0  0  0  0  0  0  0  0  0  0
  -21.9725   13.1020   28.2270 O   0  0  0  0  0  0  0  0  0  0  0  0
  -23.3620   13.0981   28.5785 C   0  0  0  0  0  0  0  0  0  0  0  0
  -23.8938   13.8532   27.9898 H   0  0  0  0  0  0  0  0  0  0  0  0
  -23.7885   12.1081   28.3833 H   0  0  0  0  0  0  0  0  0  0  0  0
  -23.4768   13.4245   30.0546 C   0  0  0  0  0  0  0  0  0  0  0  0
  -23.0317   14.4021   30.2697 H   0  0  0  0  0  0  0  0  0  0  0  0
  -22.9324   12.6874   30.6547 H   0  0  0  0  0  0  0  0  0  0  0  0
  -24.5234   13.4352   30.3721 H   0  0  0  0  0  0  0  0  0  0  0  0
  -20.3763   12.8205   26.6219 N   0  0  0  0  0  0  0  0  0  0  0  0
  -19.9057   12.5588   25.2622 C   0  0  0  0  0  0  0  0  0  0  0  0
  -19.4619   11.5565   25.2760 H   0  0  0  0  0  0  0  0  0  0  0  0
  -20.7336   12.5545   24.5460 H   0  0  0  0  0  0  0  0  0  0  0  0
  -18.8523   13.5879   24.8519 C   0  0  0  0  0  0  0  0  0  0  0  0
  -19.2915   14.5886   24.7574 H   0  0  0  0  0  0  0  0  0  0  0  0
  -18.4203   13.3172   23.8830 H   0  0  0  0  0  0  0  0  0  0  0  0
  -17.7843   13.6356   25.8092 O   0  0  0  0  0  0  0  0  0  0  0  0
  -18.2778   14.0088   27.1047 C   0  0  0  0  0  0  0  0  0  0  0  0
  -17.4243   14.0471   27.7889 H   0  0  0  0  0  0  0  0  0  0  0  0
  -18.7071   15.0166   27.0451 H   0  0  0  0  0  0  0  0  0  0  0  0
  -19.3094   12.9986   27.6093 C   0  0  0  0  0  0  0  0  0  0  0  0
  -19.7001   13.3138   28.5808 H   0  0  0  0  0  0  0  0  0  0  0  0
  -18.8391   12.0167   27.7352 H   0  0  0  0  0  0  0  0  0  0  0  0
  1  2  2  0
  2  3  1  0
  2 11  1  0
  3  4  1  0
  4  5  1  0
  4  6  1  0
  4  7  1  0
  7  8  1  0
  7  9  1  0
  7 10  1  0
 11 12  1  0
 11 22  1  0
 12 13  1  0
 12 14  1  0
 12 15  1  0
 15 16  1  0
 15 17  1  0
 15 18  1  0
 18 19  1  0
 19 20  1  0
 19 21  1  0
 19 22  1  0
 22 23  1  0
 22 24  1  0
M  END
$$$$
