
     RDKit          3D

 26 27  0  0  0  0  0  0  0  0999 V2000
  -21.3805   14.1777   28.4163 O   0  0  0  0  0  0  0  0  0  0  0  0
  -20.7680   13.5240   27.5623 C   0  0  0  0  0  0  0  0  0  0  0  0
  -21.1237   12.1893   27.3256 N   0  0  0  0  0  0  0  0  0  0  0  0
  -22.2274   11.5683   28.0533 C   0  0  0  0  0  0  0  0  0  0  0  0
  -22.3492   10.5405   27.6912 H   0  0  0  0  0  0  0  0  0  0  0  0
  -21.9836   11.5135   29.1198 H   0  0  0  0  0  0  0  0  0  0  0  0
  -23.4714   12.3401   27.8378 C   0  0  0  0  0  0  0  0  0  0  0  0
  -24.0234   12.2898   26.6234 O   0  0  0  0  0  0  0  0  0  0  0  0
  -25.1284   13.0460   26.5872 N   0  0  0  0  0  0  0  0  0  0  0  0
  -25.2727   13.5650   27.7574 C   0  0  0  0  0  0  0  0  0  0  0  0
  -26.4084   14.4587   28.0643 C   0  0  0  0  0  0  0  0  0  0  0  0
  -26.2657   14.9606   29.0271 H   0  0  0  0  0  0  0  0  0  0  0  0
  -27.3415   13.8875   28.1165 H   0  0  0  0  0  0  0  0  0  0  0  0
  -26.5179   15.2313   27.2963 H   0  0  0  0  0  0  0  0  0  0  0  0
  -24.2401   13.1475   28.5846 C   0  0  0  0  0  0  0  0  0  0  0  0
  -24.0826   13.4101   29.5985 H   0  0  0  0  0  0  0  0  0  0  0  0
  -20.4761   11.3906   26.4051 N   0  0  0  0  0  0  0  0  0  0  0  0
  -19.4914   11.8672   25.7093 C   0  0  0  0  0  0  0  0  0  0  0  0
  -18.7993   10.9787   24.7148 C   0  0  0  0  0  0  0  0  0  0  0  0
  -19.5368   10.5807   24.0104 H   0  0  0  0  0  0  0  0  0  0  0  0
  -18.3276   10.1452   25.2445 H   0  0  0  0  0  0  0  0  0  0  0  0
  -18.0336   11.5215   24.1552 H   0  0  0  0  0  0  0  0  0  0  0  0
  -19.0622   13.2159   25.8770 C   0  0  0  0  0  0  0  0  0  0  0  0
  -18.2567   13.5773   25.2911 H   0  0  0  0  0  0  0  0  0  0  0  0
  -19.6853   14.0269   26.7797 C   0  0  0  0  0  0  0  0  0  0  0  0
  -19.3907   15.0322   26.9278 H   0  0  0  0  0  0  0  0  0  0  0  0
  1  2  2  0
  2  3  1  0
  2 25  1  0
  3  4  1  0
  3 17  1  0
  4  5  1  0
  4  6  1  0
  4  7  1  0
  7  8  1  0
  7 15  2  0
  8  9  1  0
  9 10  2  0
 10 11  1  0
 10 15  1  0
 11 12  1  0
 11 13  1  0
 11 14  1  0
 15 16  1  0
 17 18  2  0
 18 19  1  0
 18 23  1  0
 19 20  1  0
 19 21  1  0
 19 22  1  0
 23 24  1  0
 23 25  2  0
 25 26  1  0
M  END
$$$$
