
     RDKit          3D

 24 25  0  0  0  0  0  0  0  0999 V2000
  -23.7721   12.9493   28.7092 S   0  0  0  0  0  0  0  0  0  0  0  0
  -23.3812   14.3366   28.8628 O   0  0  0  0  0  0  0  0  0  0  0  0
  -24.7389   12.3448   29.6110 O   0  0  0  0  0  0  0  0  0  0  0  0
  -22.3068   11.9292   28.7230 C   0  0  0  0  0  0  0  0  0  0  0  0
  -21.9457   11.8750   29.7538 H   0  0  0  0  0  0  0  0  0  0  0  0
  -22.5914   10.9316   28.3775 H   0  0  0  0  0  0  0  0  0  0  0  0
  -21.2680   12.5288   27.8417 C   0  0  0  0  0  0  0  0  0  0  0  0
  -20.9454   12.0146   26.6152 N   0  0  0  0  0  0  0  0  0  0  0  0
  -21.3379   11.1651   26.1850 H   0  0  0  0  0  0  0  0  0  0  0  0
  -20.0078   12.8178   26.0551 C   0  0  0  0  0  0  0  0  0  0  0  0
  -19.7959   13.8132   26.9864 C   0  0  0  0  0  0  0  0  0  0  0  0
  -20.5973   13.6047   28.0890 N   0  0  0  0  0  0  0  0  0  0  0  0
  -18.8660   14.8225   26.7040 C   0  0  0  0  0  0  0  0  0  0  0  0
  -18.6971   15.5885   27.4147 H   0  0  0  0  0  0  0  0  0  0  0  0
  -18.1814   14.7949   25.4956 C   0  0  0  0  0  0  0  0  0  0  0  0
  -17.4754   15.5525   25.2720 H   0  0  0  0  0  0  0  0  0  0  0  0
  -18.4172   13.7637   24.5567 C   0  0  0  0  0  0  0  0  0  0  0  0
  -17.8840   13.7620   23.6394 H   0  0  0  0  0  0  0  0  0  0  0  0
  -19.3350   12.7613   24.8270 C   0  0  0  0  0  0  0  0  0  0  0  0
  -19.5207   11.9823   24.1333 H   0  0  0  0  0  0  0  0  0  0  0  0
  -24.3789   12.7433   27.0541 C   0  0  0  0  0  0  0  0  0  0  0  0
  -23.6206   13.0990   26.3545 H   0  0  0  0  0  0  0  0  0  0  0  0
  -25.2916   13.3335   26.9496 H   0  0  0  0  0  0  0  0  0  0  0  0
  -24.5964   11.6863   26.8860 H   0  0  0  0  0  0  0  0  0  0  0  0
  1  2  2  0
  1  3  2  0
  1  4  1  0
  1 21  1  0
  4  5  1  0
  4  6  1  0
  4  7  1  0
  7  8  1  0
  7 12  2  0
  8  9  1  0
  8 10  1  0
 10 11  1  0
 10 19  2  0
 11 12  1  0
 11 13  2  0
 13 14  1  0
 13 15  1  0
 15 16  1  0
 15 17  2  0
 17 18  1  0
 17 19  1  0
 19 20  1  0
 21 22  1  0
 21 23  1  0
 21 24  1  0
M  END
$$$$
