
     RDKit          3D

 25 27  0  0  0  0  0  0  0  0999 V2000
  -22.4353   14.1041   29.0222 O   0  0  0  0  0  0  0  0  0  0  0  0
  -22.0565   12.9753   28.7149 C   0  0  0  0  0  0  0  0  0  0  0  0
  -22.5451   11.9116   29.4127 N   0  0  0  0  0  0  0  0  0  0  0  0
  -22.2052   10.9858   29.1045 H   0  0  0  0  0  0  0  0  0  0  0  0
  -23.4680   12.0035   30.4941 C   0  0  0  0  0  0  0  0  0  0  0  0
  -24.3041   12.6661   30.2828 H   0  0  0  0  0  0  0  0  0  0  0  0
  -22.9862   11.9686   31.9193 C   0  0  0  0  0  0  0  0  0  0  0  0
  -21.9291   11.8292   32.1099 H   0  0  0  0  0  0  0  0  0  0  0  0
  -23.4877   12.6082   32.6361 H   0  0  0  0  0  0  0  0  0  0  0  0
  -23.7539   10.8076   31.3595 C   0  0  0  0  0  0  0  0  0  0  0  0
  -24.7746   10.6604   31.6909 H   0  0  0  0  0  0  0  0  0  0  0  0
  -23.2135    9.8893   31.1599 H   0  0  0  0  0  0  0  0  0  0  0  0
  -21.1248   12.6897   27.6487 C   0  0  0  0  0  0  0  0  0  0  0  0
  -20.1780   13.5483   27.1487 C   0  0  0  0  0  0  0  0  0  0  0  0
  -19.5482   12.8276   26.1617 N   0  0  0  0  0  0  0  0  0  0  0  0
  -20.0466   11.5705   26.0222 N   0  0  0  0  0  0  0  0  0  0  0  0
  -20.9953   11.5051   26.9251 C   0  0  0  0  0  0  0  0  0  0  0  0
  -21.5908   10.6395   27.0783 H   0  0  0  0  0  0  0  0  0  0  0  0
  -18.5043   13.3797   25.4088 C   0  0  0  0  0  0  0  0  0  0  0  0
  -18.0821   12.7484   24.6709 H   0  0  0  0  0  0  0  0  0  0  0  0
  -18.1551   14.6671   25.7141 C   0  0  0  0  0  0  0  0  0  0  0  0
  -17.3764   15.1553   25.1888 H   0  0  0  0  0  0  0  0  0  0  0  0
  -18.8360   15.3860   26.7514 C   0  0  0  0  0  0  0  0  0  0  0  0
  -18.5480   16.3824   26.9694 H   0  0  0  0  0  0  0  0  0  0  0  0
  -19.8080   14.8658   27.4502 N   0  0  0  0  0  0  0  0  0  0  0  0
  1  2  2  0
  2  3  1  0
  2 13  1  0
  3  4  1  0
  3  5  1  0
  5  6  1  0
  5  7  1  0
  5 10  1  0
  7  8  1  0
  7  9  1  0
  7 10  1  0
 10 11  1  0
 10 12  1  0
 13 14  2  0
 13 17  1  0
 14 15  1  0
 14 25  1  0
 15 16  1  0
 15 19  1  0
 16 17  2  0
 17 18  1  0
 19 20  1  0
 19 21  2  0
 21 22  1  0
 21 23  1  0
 23 24  1  0
 23 25  2  0
M  END
$$$$
