
     RDKit          3D

 18 18  0  0  0  0  0  0  0  0999 V2000
  -19.2843   14.6503   25.1515 O   0  0  0  0  0  0  0  0  0  0  0  0
  -18.5972   14.7588   26.1569 C   0  0  0  0  0  0  0  0  0  0  0  0
  -18.1244   13.7094   26.8933 O   0  0  0  0  0  0  0  0  0  0  0  0
  -18.6234   12.4093   26.5421 C   0  0  0  0  0  0  0  0  0  0  0  0
  -18.0342   11.6776   27.1050 H   0  0  0  0  0  0  0  0  0  0  0  0
  -18.4687   12.1984   25.4781 H   0  0  0  0  0  0  0  0  0  0  0  0
  -20.0858   12.2914   26.9255 C   0  0  0  0  0  0  0  0  0  0  0  0
  -20.6957   13.0143   26.3745 H   0  0  0  0  0  0  0  0  0  0  0  0
  -20.2233   12.5064   27.9902 H   0  0  0  0  0  0  0  0  0  0  0  0
  -20.4616   11.2857   26.7172 H   0  0  0  0  0  0  0  0  0  0  0  0
  -18.1982   16.0448   26.6992 C   0  0  0  0  0  0  0  0  0  0  0  0
  -17.1900   16.2952   27.5829 C   0  0  0  0  0  0  0  0  0  0  0  0
  -16.4953   15.6519   28.0586 H   0  0  0  0  0  0  0  0  0  0  0  0
  -17.2023   17.6225   27.7886 N   0  0  0  0  0  0  0  0  0  0  0  0
  -16.5526   18.1363   28.4159 H   0  0  0  0  0  0  0  0  0  0  0  0
  -18.1796   18.2420   27.0722 N   0  0  0  0  0  0  0  0  0  0  0  0
  -18.7754   17.2843   26.4190 C   0  0  0  0  0  0  0  0  0  0  0  0
  -19.5927   17.4455   25.7617 H   0  0  0  0  0  0  0  0  0  0  0  0
  1  2  2  0
  2  3  1  0
  2 11  1  0
  3  4  1  0
  4  5  1  0
  4  6  1  0
  4  7  1  0
  7  8  1  0
  7  9  1  0
  7 10  1  0
 11 12  2  0
 11 17  1  0
 12 13  1  0
 12 14  1  0
 14 15  1  0
 14 16  1  0
 16 17  2  0
 17 18  1  0
M  END
$$$$
