
     RDKit          3D

 29 31  0  0  0  0  0  0  0  0999 V2000
  -19.0077   13.0882   27.3315 O   0  0  0  0  0  0  0  0  0  0  0  0
  -19.6839   13.0724   26.3273 C   0  0  0  0  0  0  0  0  0  0  0  0
  -21.0301   12.8742   26.3726 N   0  0  0  0  0  0  0  0  0  0  0  0
  -21.5192   12.8538   25.4738 H   0  0  0  0  0  0  0  0  0  0  0  0
  -21.8578   12.6857   27.4546 C   0  0  0  0  0  0  0  0  0  0  0  0
  -21.2376   12.2953   29.0295 S   0  0  0  0  0  0  0  0  0  0  0  0
  -22.8671   12.2799   29.6088 C   0  0  0  0  0  0  0  0  0  0  0  0
  -23.7377   12.5717   28.5597 C   0  0  0  0  0  0  0  0  0  0  0  0
  -23.1418   12.8036   27.3261 N   0  0  0  0  0  0  0  0  0  0  0  0
  -25.1185   12.6118   28.8145 C   0  0  0  0  0  0  0  0  0  0  0  0
  -25.7842   12.8320   28.0217 H   0  0  0  0  0  0  0  0  0  0  0  0
  -25.5960   12.3629   30.0933 C   0  0  0  0  0  0  0  0  0  0  0  0
  -26.6372   12.3946   30.2812 H   0  0  0  0  0  0  0  0  0  0  0  0
  -24.6899   12.0709   31.1376 C   0  0  0  0  0  0  0  0  0  0  0  0
  -25.0435   11.8105   32.4381 O   0  0  0  0  0  0  0  0  0  0  0  0
  -24.8698   10.4786   32.9076 C   0  0  0  0  0  0  0  0  0  0  0  0
  -23.8145   10.1866   32.8835 H   0  0  0  0  0  0  0  0  0  0  0  0
  -25.1993   10.4462   33.9505 H   0  0  0  0  0  0  0  0  0  0  0  0
  -25.4895    9.7760   32.3410 H   0  0  0  0  0  0  0  0  0  0  0  0
  -23.3270   12.0267   30.9082 C   0  0  0  0  0  0  0  0  0  0  0  0
  -22.6503   11.8059   31.6919 H   0  0  0  0  0  0  0  0  0  0  0  0
  -19.1075   13.2848   24.9816 C   0  0  0  0  0  0  0  0  0  0  0  0
  -19.3857   12.5169   24.2649 H   0  0  0  0  0  0  0  0  0  0  0  0
  -17.7564   13.9373   24.8070 C   0  0  0  0  0  0  0  0  0  0  0  0
  -17.2161   14.2847   25.6805 H   0  0  0  0  0  0  0  0  0  0  0  0
  -17.1204   13.5779   24.0073 H   0  0  0  0  0  0  0  0  0  0  0  0
  -19.0005   14.6850   24.4278 C   0  0  0  0  0  0  0  0  0  0  0  0
  -19.2087   14.8289   23.3745 H   0  0  0  0  0  0  0  0  0  0  0  0
  -19.3095   15.5129   25.0573 H   0  0  0  0  0  0  0  0  0  0  0  0
  1  2  2  0
  2  3  1  0
  2 22  1  0
  3  4  1  0
  3  5  1  0
  5  6  1  0
  5  9  2  0
  6  7  1  0
  7  8  1  0
  7 20  2  0
  8  9  1  0
  8 10  2  0
 10 11  1  0
 10 12  1  0
 12 13  1  0
 12 14  2  0
 14 15  1  0
 14 20  1  0
 15 16  1  0
 16 17  1  0
 16 18  1  0
 16 19  1  0
 20 21  1  0
 22 23  1  0
 22 24  1  0
 22 27  1  0
 24 25  1  0
 24 26  1  0
 24 27  1  0
 27 28  1  0
 27 29  1  0
M  END
$$$$
