
     RDKit          3D

 24 24  0  0  0  0  0  0  0  0999 V2000
  -22.5211   11.5182   29.9646 O   0  0  0  0  0  0  0  0  0  0  0  0
  -23.2480   12.4866   30.1484 C   0  0  0  0  0  0  0  0  0  0  0  0
  -23.6201   12.9429   31.3751 O   0  0  0  0  0  0  0  0  0  0  0  0
  -23.2208   12.1121   32.4726 C   0  0  0  0  0  0  0  0  0  0  0  0
  -22.1671   11.8347   32.3613 H   0  0  0  0  0  0  0  0  0  0  0  0
  -23.3641   12.6524   33.4147 H   0  0  0  0  0  0  0  0  0  0  0  0
  -24.0833   10.8653   32.4595 C   0  0  0  0  0  0  0  0  0  0  0  0
  -23.9693   10.3268   31.5124 H   0  0  0  0  0  0  0  0  0  0  0  0
  -25.1423   11.1297   32.5506 H   0  0  0  0  0  0  0  0  0  0  0  0
  -23.8143   10.1956   33.2814 H   0  0  0  0  0  0  0  0  0  0  0  0
  -23.7685   13.2235   29.1162 N   0  0  0  0  0  0  0  0  0  0  0  0
  -23.4644   12.8946   27.7240 C   0  0  0  0  0  0  0  0  0  0  0  0
  -22.8141   13.6950   27.3521 H   0  0  0  0  0  0  0  0  0  0  0  0
  -22.9183   11.9490   27.6462 H   0  0  0  0  0  0  0  0  0  0  0  0
  -24.7467   12.8386   26.8937 C   0  0  0  0  0  0  0  0  0  0  0  0
  -25.3799   11.9965   27.1986 H   0  0  0  0  0  0  0  0  0  0  0  0
  -24.5027   12.7098   25.8342 H   0  0  0  0  0  0  0  0  0  0  0  0
  -25.4945   14.0563   27.0255 O   0  0  0  0  0  0  0  0  0  0  0  0
  -25.8695   14.2782   28.3935 C   0  0  0  0  0  0  0  0  0  0  0  0
  -26.4495   15.2055   28.4345 H   0  0  0  0  0  0  0  0  0  0  0  0
  -26.5211   13.4587   28.7210 H   0  0  0  0  0  0  0  0  0  0  0  0
  -24.6343   14.3923   29.2881 C   0  0  0  0  0  0  0  0  0  0  0  0
  -24.9362   14.5274   30.3303 H   0  0  0  0  0  0  0  0  0  0  0  0
  -24.0385   15.2631   28.9919 H   0  0  0  0  0  0  0  0  0  0  0  0
  1  2  2  0
  2  3  1  0
  2 11  1  0
  3  4  1  0
  4  5  1  0
  4  6  1  0
  4  7  1  0
  7  8  1  0
  7  9  1  0
  7 10  1  0
 11 12  1  0
 11 22  1  0
 12 13  1  0
 12 14  1  0
 12 15  1  0
 15 16  1  0
 15 17  1  0
 15 18  1  0
 18 19  1  0
 19 20  1  0
 19 21  1  0
 19 22  1  0
 22 23  1  0
 22 24  1  0
M  END
$$$$
