
     RDKit          3D

 19 19  0  0  0  0  0  0  0  0999 V2000
  -21.7821   12.8093   25.6517 O   0  0  0  0  0  0  0  0  0  0  0  0
  -20.6388   13.0074   26.0563 C   0  0  0  0  0  0  0  0  0  0  0  0
  -20.3665   12.6300   27.3699 N   0  0  0  0  0  0  0  0  0  0  0  0
  -21.4628   12.3342   28.2821 C   0  0  0  0  0  0  0  0  0  0  0  0
  -21.3014   12.8804   29.2171 H   0  0  0  0  0  0  0  0  0  0  0  0
  -21.4681   11.2591   28.4838 H   0  0  0  0  0  0  0  0  0  0  0  0
  -22.4340   12.6251   27.8746 H   0  0  0  0  0  0  0  0  0  0  0  0
  -19.0282   12.4712   27.9234 C   0  0  0  0  0  0  0  0  0  0  0  0
  -19.0032   11.5730   28.5491 H   0  0  0  0  0  0  0  0  0  0  0  0
  -18.7984   13.3458   28.5387 H   0  0  0  0  0  0  0  0  0  0  0  0
  -18.2762   12.3545   27.1404 H   0  0  0  0  0  0  0  0  0  0  0  0
  -19.6116   13.5978   25.2176 C   0  0  0  0  0  0  0  0  0  0  0  0
  -18.8209   14.6424   25.5934 C   0  0  0  0  0  0  0  0  0  0  0  0
  -18.7979   15.2165   26.4830 H   0  0  0  0  0  0  0  0  0  0  0  0
  -17.9806   14.8604   24.5679 N   0  0  0  0  0  0  0  0  0  0  0  0
  -17.2492   15.5961   24.5447 H   0  0  0  0  0  0  0  0  0  0  0  0
  -18.1895   13.9915   23.5415 N   0  0  0  0  0  0  0  0  0  0  0  0
  -19.1664   13.2304   23.9458 C   0  0  0  0  0  0  0  0  0  0  0  0
  -19.5530   12.4309   23.3641 H   0  0  0  0  0  0  0  0  0  0  0  0
  1  2  2  0
  2  3  1  0
  2 12  1  0
  3  4  1  0
  3  8  1  0
  4  5  1  0
  4  6  1  0
  4  7  1  0
  8  9  1  0
  8 10  1  0
  8 11  1  0
 12 13  2  0
 12 18  1  0
 13 14  1  0
 13 15  1  0
 15 16  1  0
 15 17  1  0
 17 18  2  0
 18 19  1  0
M  END
$$$$
