
     RDKit          3D

 19 19  0  0  0  0  0  0  0  0999 V2000
  -19.0175   12.4046   28.3673 O   0  0  0  0  0  0  0  0  0  0  0  0
  -19.5560   12.1301   27.3045 C   0  0  0  0  0  0  0  0  0  0  0  0
  -20.8635   12.2499   27.1234 N   0  0  0  0  0  0  0  0  0  0  0  0
  -21.2763   12.0048   26.2399 H   0  0  0  0  0  0  0  0  0  0  0  0
  -21.7445   12.7229   28.1701 C   0  0  0  0  0  0  0  0  0  0  0  0
  -21.5149   12.1762   29.0912 H   0  0  0  0  0  0  0  0  0  0  0  0
  -21.5421   13.7845   28.3488 H   0  0  0  0  0  0  0  0  0  0  0  0
  -23.1536   12.5037   27.7507 C   0  0  0  0  0  0  0  0  0  0  0  0
  -23.7194   11.3369   27.3611 C   0  0  0  0  0  0  0  0  0  0  0  0
  -23.3235   10.3587   27.2645 H   0  0  0  0  0  0  0  0  0  0  0  0
  -25.0077   11.6294   27.0822 N   0  0  0  0  0  0  0  0  0  0  0  0
  -25.7198   10.9487   26.7578 H   0  0  0  0  0  0  0  0  0  0  0  0
  -25.2818   12.9462   27.2730 N   0  0  0  0  0  0  0  0  0  0  0  0
  -24.1560   13.4659   27.6788 C   0  0  0  0  0  0  0  0  0  0  0  0
  -24.0428   14.4947   27.9137 H   0  0  0  0  0  0  0  0  0  0  0  0
  -18.7819   11.6053   26.1272 C   0  0  0  0  0  0  0  0  0  0  0  0
  -19.2907   11.8324   25.1862 H   0  0  0  0  0  0  0  0  0  0  0  0
  -18.6738   10.5224   26.2242 H   0  0  0  0  0  0  0  0  0  0  0  0
  -17.7927   12.0711   26.1069 H   0  0  0  0  0  0  0  0  0  0  0  0
  1  2  2  0
  2  3  1  0
  2 16  1  0
  3  4  1  0
  3  5  1  0
  5  6  1  0
  5  7  1  0
  5  8  1  0
  8  9  2  0
  8 14  1  0
  9 10  1  0
  9 11  1  0
 11 12  1  0
 11 13  1  0
 13 14  2  0
 14 15  1  0
 16 17  1  0
 16 18  1  0
 16 19  1  0
M  END
$$$$
