
     RDKit          3D

 16 16  0  0  0  0  0  0  0  0999 V2000
  -23.2762   15.4712   30.7654 O   0  0  0  0  0  0  0  0  0  0  0  0
  -23.7128   14.1238   30.9446 C   0  0  0  0  0  0  0  0  0  0  0  0
  -23.2905   13.7207   31.8733 H   0  0  0  0  0  0  0  0  0  0  0  0
  -24.8063   14.0878   31.0089 H   0  0  0  0  0  0  0  0  0  0  0  0
  -23.2245   13.3316   29.7800 C   0  0  0  0  0  0  0  0  0  0  0  0
  -23.3372   11.6223   29.7666 S   0  0  0  0  0  0  0  0  0  0  0  0
  -22.5951   11.6888   28.2375 C   0  0  0  0  0  0  0  0  0  0  0  0
  -22.3485   10.5585   27.5540 N   0  0  0  0  0  0  0  0  0  0  0  0
  -22.5922    9.6445   27.9144 H   0  0  0  0  0  0  0  0  0  0  0  0
  -21.9061   10.5985   26.6437 H   0  0  0  0  0  0  0  0  0  0  0  0
  -22.2954   12.8735   27.8051 N   0  0  0  0  0  0  0  0  0  0  0  0
  -22.6694   13.8362   28.7195 N   0  0  0  0  0  0  0  0  0  0  0  0
  -23.6817   16.3004   31.8452 C   0  0  0  0  0  0  0  0  0  0  0  0
  -23.3216   17.3152   31.6542 H   0  0  0  0  0  0  0  0  0  0  0  0
  -23.2467   15.9467   32.7847 H   0  0  0  0  0  0  0  0  0  0  0  0
  -24.7731   16.3257   31.9200 H   0  0  0  0  0  0  0  0  0  0  0  0
  1  2  1  0
  1 13  1  0
  2  3  1  0
  2  4  1  0
  2  5  1  0
  5  6  1  0
  5 12  2  0
  6  7  1  0
  7  8  1  0
  7 11  2  0
  8  9  1  0
  8 10  1  0
 11 12  1  0
 13 14  1  0
 13 15  1  0
 13 16  1  0
M  END
$$$$
