
     RDKit          3D

 21 21  0  0  0  0  0  0  0  0999 V2000
  -23.3248    9.5218   32.6599 Br  0  0  0  0  0  0  0  0  0  0  0  0
  -23.4737   10.7358   31.2161 C   0  0  0  0  0  0  0  0  0  0  0  0
  -24.0459   11.9877   31.4139 C   0  0  0  0  0  0  0  0  0  0  0  0
  -24.4042   12.2729   32.3663 H   0  0  0  0  0  0  0  0  0  0  0  0
  -24.1527   12.8699   30.3429 C   0  0  0  0  0  0  0  0  0  0  0  0
  -24.7434   14.0825   30.5862 O   0  0  0  0  0  0  0  0  0  0  0  0
  -23.9275   15.0942   31.2248 C   0  0  0  0  0  0  0  0  0  0  0  0
  -24.5766   15.9180   31.5174 H   0  0  0  0  0  0  0  0  0  0  0  0
  -23.1749   15.4254   30.5108 H   0  0  0  0  0  0  0  0  0  0  0  0
  -23.4477   14.6618   32.1022 H   0  0  0  0  0  0  0  0  0  0  0  0
  -23.6795   12.5315   29.0676 C   0  0  0  0  0  0  0  0  0  0  0  0
  -23.7441   13.4898   27.8779 C   0  0  0  0  0  0  0  0  0  0  0  0
  -22.9732   13.2238   27.1715 H   0  0  0  0  0  0  0  0  0  0  0  0
  -23.6686   14.5163   28.1959 H   0  0  0  0  0  0  0  0  0  0  0  0
  -25.0747   13.3172   27.1807 C   0  0  0  0  0  0  0  0  0  0  0  0
  -25.0543   12.9705   25.9780 O   0  0  0  0  0  0  0  0  0  0  0  0
  -26.1128   13.5795   27.8281 O   0  0  0  0  0  0  0  0  0  0  0  0
  -23.1158   11.2695   28.8868 C   0  0  0  0  0  0  0  0  0  0  0  0
  -22.7708   10.9873   27.9225 H   0  0  0  0  0  0  0  0  0  0  0  0
  -23.0125   10.3763   29.9505 C   0  0  0  0  0  0  0  0  0  0  0  0
  -22.5853    9.4204   29.7943 H   0  0  0  0  0  0  0  0  0  0  0  0
  1  2  1  0
  2  3  1  0
  2 20  2  0
  3  4  1  0
  3  5  2  0
  5  6  1  0
  5 11  1  0
  6  7  1  0
  7  8  1  0
  7  9  1  0
  7 10  1  0
 11 12  1  0
 11 18  2  0
 12 13  1  0
 12 14  1  0
 12 15  1  0
 15 16  1  0
 15 17  2  0
 18 19  1  0
 18 20  1  0
 20 21  1  0
M  END
$$$$
