
     RDKit          3D

 31 32  0  0  0  0  0  0  0  0999 V2000
  -20.5575   10.7246   26.4769 O   0  0  0  0  0  0  0  0  0  0  0  0
  -20.6124   11.9286   26.6908 C   0  0  0  0  0  0  0  0  0  0  0  0
  -21.6503   12.3702   27.4558 N   0  0  0  0  0  0  0  0  0  0  0  0
  -21.6971   13.3532   27.7488 H   0  0  0  0  0  0  0  0  0  0  0  0
  -22.6996   11.4831   27.9159 C   0  0  0  0  0  0  0  0  0  0  0  0
  -22.3970   11.0568   28.8793 H   0  0  0  0  0  0  0  0  0  0  0  0
  -22.8025   10.6597   27.2001 H   0  0  0  0  0  0  0  0  0  0  0  0
  -23.9660   12.2515   28.0462 C   0  0  0  0  0  0  0  0  0  0  0  0
  -24.6959   12.4399   29.1708 C   0  0  0  0  0  0  0  0  0  0  0  0
  -24.5510   12.1154   30.1672 H   0  0  0  0  0  0  0  0  0  0  0  0
  -25.7594   13.1880   28.8013 N   0  0  0  0  0  0  0  0  0  0  0  0
  -26.8462   13.6661   29.6297 C   0  0  0  0  0  0  0  0  0  0  0  0
  -27.6410   14.0223   28.9651 H   0  0  0  0  0  0  0  0  0  0  0  0
  -27.2362   12.8100   30.1902 H   0  0  0  0  0  0  0  0  0  0  0  0
  -26.4079   14.7740   30.5703 C   0  0  0  0  0  0  0  0  0  0  0  0
  -26.0126   15.6300   30.0127 H   0  0  0  0  0  0  0  0  0  0  0  0
  -25.6223   14.4282   31.2502 H   0  0  0  0  0  0  0  0  0  0  0  0
  -27.2539   15.1182   31.1728 H   0  0  0  0  0  0  0  0  0  0  0  0
  -25.7279   13.4835   27.4772 N   0  0  0  0  0  0  0  0  0  0  0  0
  -24.6440   12.9121   27.0290 C   0  0  0  0  0  0  0  0  0  0  0  0
  -24.3384   12.9651   26.0145 H   0  0  0  0  0  0  0  0  0  0  0  0
  -19.5950   12.8783   26.2006 C   0  0  0  0  0  0  0  0  0  0  0  0
  -19.2606   13.9656   27.0178 C   0  0  0  0  0  0  0  0  0  0  0  0
  -19.7413   14.0843   27.9573 H   0  0  0  0  0  0  0  0  0  0  0  0
  -18.3531   14.8766   26.6608 N   0  0  0  0  0  0  0  0  0  0  0  0
  -17.7270   14.7622   25.4914 C   0  0  0  0  0  0  0  0  0  0  0  0
  -17.0107   15.5023   25.2358 H   0  0  0  0  0  0  0  0  0  0  0  0
  -17.9925   13.7075   24.6221 C   0  0  0  0  0  0  0  0  0  0  0  0
  -17.4747   13.6398   23.7013 H   0  0  0  0  0  0  0  0  0  0  0  0
  -18.9344   12.7487   24.9724 C   0  0  0  0  0  0  0  0  0  0  0  0
  -19.1342   11.9380   24.3212 H   0  0  0  0  0  0  0  0  0  0  0  0
  1  2  2  0
  2  3  1  0
  2 22  1  0
  3  4  1  0
  3  5  1  0
  5  6  1  0
  5  7  1  0
  5  8  1  0
  8  9  2  0
  8 20  1  0
  9 10  1  0
  9 11  1  0
 11 12  1  0
 11 19  1  0
 12 13  1  0
 12 14  1  0
 12 15  1  0
 15 16  1  0
 15 17  1  0
 15 18  1  0
 19 20  2  0
 20 21  1  0
 22 23  1  0
 22 30  2  0
 23 24  1  0
 23 25  2  0
 25 26  1  0
 26 27  1  0
 26 28  2  0
 28 29  1  0
 28 30  1  0
 30 31  1  0
M  END
$$$$
