
     RDKit          3D

 19 19  0  0  0  0  0  0  0  0999 V2000
  -21.2760   12.1936   29.0686 O   0  0  0  0  0  0  0  0  0  0  0  0
  -21.7473   12.6107   28.0203 C   0  0  0  0  0  0  0  0  0  0  0  0
  -20.9890   12.9156   26.9768 N   0  0  0  0  0  0  0  0  0  0  0  0
  -21.4077   13.2671   26.1329 H   0  0  0  0  0  0  0  0  0  0  0  0
  -19.5493   12.7675   27.0031 C   0  0  0  0  0  0  0  0  0  0  0  0
  -19.1437   13.4473   27.7604 H   0  0  0  0  0  0  0  0  0  0  0  0
  -19.3054   11.7431   27.3045 H   0  0  0  0  0  0  0  0  0  0  0  0
  -19.0073   13.0786   25.6544 C   0  0  0  0  0  0  0  0  0  0  0  0
  -18.6432   12.1952   24.6951 C   0  0  0  0  0  0  0  0  0  0  0  0
  -18.6531   11.1358   24.6715 H   0  0  0  0  0  0  0  0  0  0  0  0
  -18.2180   12.9406   23.6527 N   0  0  0  0  0  0  0  0  0  0  0  0
  -17.8711   12.5656   22.7501 H   0  0  0  0  0  0  0  0  0  0  0  0
  -18.2909   14.2711   23.9173 N   0  0  0  0  0  0  0  0  0  0  0  0
  -18.7708   14.3446   25.1282 C   0  0  0  0  0  0  0  0  0  0  0  0
  -18.9455   15.2641   25.6286 H   0  0  0  0  0  0  0  0  0  0  0  0
  -23.2223   12.8402   27.8415 C   0  0  0  0  0  0  0  0  0  0  0  0
  -23.5080   12.7747   26.7878 H   0  0  0  0  0  0  0  0  0  0  0  0
  -23.4787   13.8319   28.2216 H   0  0  0  0  0  0  0  0  0  0  0  0
  -23.7777   12.0804   28.3984 H   0  0  0  0  0  0  0  0  0  0  0  0
  1  2  2  0
  2  3  1  0
  2 16  1  0
  3  4  1  0
  3  5  1  0
  5  6  1  0
  5  7  1  0
  5  8  1  0
  8  9  2  0
  8 14  1  0
  9 10  1  0
  9 11  1  0
 11 12  1  0
 11 13  1  0
 13 14  2  0
 14 15  1  0
 16 17  1  0
 16 18  1  0
 16 19  1  0
M  END
$$$$
