
     RDKit          3D

 29 30  0  0  0  0  0  0  0  0999 V2000
  -23.6072   12.8188   27.5401 O   0  0  0  0  0  0  0  0  0  0  0  0
  -23.1125   12.6046   28.6309 C   0  0  0  0  0  0  0  0  0  0  0  0
  -21.7644   12.4151   28.7683 N   0  0  0  0  0  0  0  0  0  0  0  0
  -21.4438   12.2289   29.7256 H   0  0  0  0  0  0  0  0  0  0  0  0
  -20.7945   12.4408   27.7745 C   0  0  0  0  0  0  0  0  0  0  0  0
  -20.9751   12.6375   26.4521 C   0  0  0  0  0  0  0  0  0  0  0  0
  -21.8436   12.8125   25.8757 H   0  0  0  0  0  0  0  0  0  0  0  0
  -19.7305   12.5700   25.9175 N   0  0  0  0  0  0  0  0  0  0  0  0
  -19.3576   12.7086   24.5264 C   0  0  0  0  0  0  0  0  0  0  0  0
  -19.8050   11.8715   23.9782 H   0  0  0  0  0  0  0  0  0  0  0  0
  -19.8073   13.6339   24.1505 H   0  0  0  0  0  0  0  0  0  0  0  0
  -17.8519   12.7359   24.3357 C   0  0  0  0  0  0  0  0  0  0  0  0
  -17.6049   12.8488   23.2757 H   0  0  0  0  0  0  0  0  0  0  0  0
  -17.4013   13.5699   24.8833 H   0  0  0  0  0  0  0  0  0  0  0  0
  -17.3909   11.8108   24.6973 H   0  0  0  0  0  0  0  0  0  0  0  0
  -18.7737   12.3415   26.8654 N   0  0  0  0  0  0  0  0  0  0  0  0
  -19.4322   12.2630   27.9926 C   0  0  0  0  0  0  0  0  0  0  0  0
  -18.9690   12.0873   28.9287 H   0  0  0  0  0  0  0  0  0  0  0  0
  -23.9085   12.5129   29.9667 C   0  0  0  0  0  0  0  0  0  0  0  0
  -23.8793   11.5023   30.4022 H   0  0  0  0  0  0  0  0  0  0  0  0
  -23.6018   13.5844   31.0491 C   0  0  0  0  0  0  0  0  0  0  0  0
  -23.2480   14.5421   30.6523 H   0  0  0  0  0  0  0  0  0  0  0  0
  -22.9327   13.2653   31.8533 H   0  0  0  0  0  0  0  0  0  0  0  0
  -25.1024   13.5735   31.3956 C   0  0  0  0  0  0  0  0  0  0  0  0
  -25.5407   14.5430   31.6440 H   0  0  0  0  0  0  0  0  0  0  0  0
  -25.3693   12.8490   32.1734 H   0  0  0  0  0  0  0  0  0  0  0  0
  -25.3605   13.0667   29.9640 C   0  0  0  0  0  0  0  0  0  0  0  0
  -25.5383   13.8691   29.2380 H   0  0  0  0  0  0  0  0  0  0  0  0
  -26.1518   12.3192   29.8663 H   0  0  0  0  0  0  0  0  0  0  0  0
  1  2  2  0
  2  3  1  0
  2 19  1  0
  3  4  1  0
  3  5  1  0
  5  6  2  0
  5 17  1  0
  6  7  1  0
  6  8  1  0
  8  9  1  0
  8 16  1  0
  9 10  1  0
  9 11  1  0
  9 12  1  0
 12 13  1  0
 12 14  1  0
 12 15  1  0
 16 17  2  0
 17 18  1  0
 19 20  1  0
 19 21  1  0
 19 27  1  0
 21 22  1  0
 21 23  1  0
 21 24  1  0
 24 25  1  0
 24 26  1  0
 24 27  1  0
 27 28  1  0
 27 29  1  0
M  END
$$$$
