
     RDKit          3D

 32 33  0  0  0  0  0  0  0  0999 V2000
  -21.7615   13.2373   26.4484 O   0  0  0  0  0  0  0  0  0  0  0  0
  -20.9035   12.7485   27.1568 C   0  0  0  0  0  0  0  0  0  0  0  0
  -21.1941   12.3438   28.4288 N   0  0  0  0  0  0  0  0  0  0  0  0
  -20.3938   11.9512   28.9343 H   0  0  0  0  0  0  0  0  0  0  0  0
  -22.4083   12.4061   29.0956 C   0  0  0  0  0  0  0  0  0  0  0  0
  -23.5789   12.8915   28.6331 C   0  0  0  0  0  0  0  0  0  0  0  0
  -23.8479   13.3145   27.7012 H   0  0  0  0  0  0  0  0  0  0  0  0
  -24.4515   12.7307   29.6566 N   0  0  0  0  0  0  0  0  0  0  0  0
  -25.8520   13.0957   29.6912 C   0  0  0  0  0  0  0  0  0  0  0  0
  -26.3665   12.5051   28.9255 H   0  0  0  0  0  0  0  0  0  0  0  0
  -26.2504   12.8014   30.6684 H   0  0  0  0  0  0  0  0  0  0  0  0
  -26.0655   14.5812   29.4610 C   0  0  0  0  0  0  0  0  0  0  0  0
  -25.6846   14.8887   28.4814 H   0  0  0  0  0  0  0  0  0  0  0  0
  -25.5483   15.1767   30.2214 H   0  0  0  0  0  0  0  0  0  0  0  0
  -27.1315   14.8233   29.5043 H   0  0  0  0  0  0  0  0  0  0  0  0
  -23.8674   12.1543   30.7481 N   0  0  0  0  0  0  0  0  0  0  0  0
  -22.6218   11.9619   30.3973 C   0  0  0  0  0  0  0  0  0  0  0  0
  -21.8959   11.5253   31.0328 H   0  0  0  0  0  0  0  0  0  0  0  0
  -19.4653   12.5712   26.6931 C   0  0  0  0  0  0  0  0  0  0  0  0
  -18.8306   12.6647   27.5833 H   0  0  0  0  0  0  0  0  0  0  0  0
  -19.2237   11.2078   26.0319 C   0  0  0  0  0  0  0  0  0  0  0  0
  -18.7410   10.5077   26.7221 H   0  0  0  0  0  0  0  0  0  0  0  0
  -20.1561   10.7383   25.7003 H   0  0  0  0  0  0  0  0  0  0  0  0
  -18.3306   11.4991   24.8342 C   0  0  0  0  0  0  0  0  0  0  0  0
  -17.2812   11.5447   25.1484 H   0  0  0  0  0  0  0  0  0  0  0  0
  -18.4207   10.7386   24.0537 H   0  0  0  0  0  0  0  0  0  0  0  0
  -18.7973   12.8665   24.3675 C   0  0  0  0  0  0  0  0  0  0  0  0
  -19.7335   12.7770   23.8058 H   0  0  0  0  0  0  0  0  0  0  0  0
  -18.0621   13.3595   23.7254 H   0  0  0  0  0  0  0  0  0  0  0  0
  -19.0279   13.6276   25.6673 C   0  0  0  0  0  0  0  0  0  0  0  0
  -19.7441   14.4449   25.5367 H   0  0  0  0  0  0  0  0  0  0  0  0
  -18.0807   14.0757   25.9948 H   0  0  0  0  0  0  0  0  0  0  0  0
  1  2  2  0
  2  3  1  0
  2 19  1  0
  3  4  1  0
  3  5  1  0
  5  6  2  0
  5 17  1  0
  6  7  1  0
  6  8  1  0
  8  9  1  0
  8 16  1  0
  9 10  1  0
  9 11  1  0
  9 12  1  0
 12 13  1  0
 12 14  1  0
 12 15  1  0
 16 17  2  0
 17 18  1  0
 19 20  1  0
 19 21  1  0
 19 30  1  0
 21 22  1  0
 21 23  1  0
 21 24  1  0
 24 25  1  0
 24 26  1  0
 24 27  1  0
 27 28  1  0
 27 29  1  0
 27 30  1  0
 30 31  1  0
 30 32  1  0
M  END
$$$$
