
     RDKit          3D

 24 25  0  0  0  0  0  0  0  0999 V2000
  -19.6684   11.9675   26.7699 S   0  0  0  0  0  0  0  0  0  0  0  0
  -20.0863   10.6765   26.2604 O   0  0  0  0  0  0  0  0  0  0  0  0
  -18.9592   12.0738   28.0345 O   0  0  0  0  0  0  0  0  0  0  0  0
  -21.0893   13.0453   26.8535 C   0  0  0  0  0  0  0  0  0  0  0  0
  -20.7262   14.0717   26.9563 H   0  0  0  0  0  0  0  0  0  0  0  0
  -21.6432   12.9408   25.9166 H   0  0  0  0  0  0  0  0  0  0  0  0
  -21.9332   12.6757   28.0226 C   0  0  0  0  0  0  0  0  0  0  0  0
  -21.4135   12.1901   29.1917 N   0  0  0  0  0  0  0  0  0  0  0  0
  -20.4212   11.9940   29.3858 H   0  0  0  0  0  0  0  0  0  0  0  0
  -22.4361   12.0039   30.0621 C   0  0  0  0  0  0  0  0  0  0  0  0
  -23.5628   12.3962   29.3696 C   0  0  0  0  0  0  0  0  0  0  0  0
  -23.2155   12.8103   28.1011 N   0  0  0  0  0  0  0  0  0  0  0  0
  -24.8103   12.3252   30.0035 C   0  0  0  0  0  0  0  0  0  0  0  0
  -25.6794   12.6230   29.4776 H   0  0  0  0  0  0  0  0  0  0  0  0
  -24.8810   11.8615   31.3111 C   0  0  0  0  0  0  0  0  0  0  0  0
  -25.8191   11.8028   31.7999 H   0  0  0  0  0  0  0  0  0  0  0  0
  -23.7108   11.4659   32.0000 C   0  0  0  0  0  0  0  0  0  0  0  0
  -23.7871   11.1154   32.9986 H   0  0  0  0  0  0  0  0  0  0  0  0
  -22.4726   11.5326   31.3814 C   0  0  0  0  0  0  0  0  0  0  0  0
  -21.5882   11.2385   31.8852 H   0  0  0  0  0  0  0  0  0  0  0  0
  -18.6646   12.7362   25.5243 C   0  0  0  0  0  0  0  0  0  0  0  0
  -19.2228   12.7584   24.5868 H   0  0  0  0  0  0  0  0  0  0  0  0
  -17.7554   12.1435   25.4053 H   0  0  0  0  0  0  0  0  0  0  0  0
  -18.4111   13.7478   25.8487 H   0  0  0  0  0  0  0  0  0  0  0  0
  1  2  2  0
  1  3  2  0
  1  4  1  0
  1 21  1  0
  4  5  1  0
  4  6  1  0
  4  7  1  0
  7  8  1  0
  7 12  2  0
  8  9  1  0
  8 10  1  0
 10 11  1  0
 10 19  2  0
 11 12  1  0
 11 13  2  0
 13 14  1  0
 13 15  1  0
 15 16  1  0
 15 17  2  0
 17 18  1  0
 17 19  1  0
 19 20  1  0
 21 22  1  0
 21 23  1  0
 21 24  1  0
M  END
$$$$
