
     RDKit          3D

 31 32  0  0  0  0  0  0  0  0999 V2000
  -20.2378   12.6624   28.8491 O   0  0  0  0  0  0  0  0  0  0  0  0
  -20.6075   12.5338   27.6893 C   0  0  0  0  0  0  0  0  0  0  0  0
  -21.8419   11.9899   27.4944 N   0  0  0  0  0  0  0  0  0  0  0  0
  -22.2457   11.9448   26.5514 H   0  0  0  0  0  0  0  0  0  0  0  0
  -22.6458   11.4917   28.5922 C   0  0  0  0  0  0  0  0  0  0  0  0
  -21.9903   10.9550   29.2878 H   0  0  0  0  0  0  0  0  0  0  0  0
  -23.3758   10.7764   28.1967 H   0  0  0  0  0  0  0  0  0  0  0  0
  -23.3157   12.6361   29.2651 C   0  0  0  0  0  0  0  0  0  0  0  0
  -22.9995   13.9480   29.1553 C   0  0  0  0  0  0  0  0  0  0  0  0
  -22.2538   14.4483   28.5962 H   0  0  0  0  0  0  0  0  0  0  0  0
  -23.8707   14.6069   29.9516 N   0  0  0  0  0  0  0  0  0  0  0  0
  -23.9593   16.0319   30.1916 C   0  0  0  0  0  0  0  0  0  0  0  0
  -23.2912   16.5322   29.4818 H   0  0  0  0  0  0  0  0  0  0  0  0
  -24.9842   16.3427   29.9636 H   0  0  0  0  0  0  0  0  0  0  0  0
  -23.5870   16.3993   31.6166 C   0  0  0  0  0  0  0  0  0  0  0  0
  -22.5637   16.0853   31.8493 H   0  0  0  0  0  0  0  0  0  0  0  0
  -24.2553   15.9165   32.3371 H   0  0  0  0  0  0  0  0  0  0  0  0
  -23.6546   17.4819   31.7601 H   0  0  0  0  0  0  0  0  0  0  0  0
  -24.7328   13.7557   30.5628 N   0  0  0  0  0  0  0  0  0  0  0  0
  -24.3889   12.5684   30.1451 C   0  0  0  0  0  0  0  0  0  0  0  0
  -24.8851   11.6814   30.4487 H   0  0  0  0  0  0  0  0  0  0  0  0
  -19.8023   12.9795   26.5359 C   0  0  0  0  0  0  0  0  0  0  0  0
  -19.2398   14.2613   26.5809 C   0  0  0  0  0  0  0  0  0  0  0  0
  -19.4047   14.8781   27.4297 H   0  0  0  0  0  0  0  0  0  0  0  0
  -18.4971   14.7523   25.5867 N   0  0  0  0  0  0  0  0  0  0  0  0
  -18.2658   14.0095   24.5062 C   0  0  0  0  0  0  0  0  0  0  0  0
  -17.6716   14.4276   23.7328 H   0  0  0  0  0  0  0  0  0  0  0  0
  -18.7795   12.7213   24.3831 C   0  0  0  0  0  0  0  0  0  0  0  0
  -18.5740   12.1523   23.5144 H   0  0  0  0  0  0  0  0  0  0  0  0
  -19.5565   12.1907   25.4049 C   0  0  0  0  0  0  0  0  0  0  0  0
  -19.9419   11.2079   25.3231 H   0  0  0  0  0  0  0  0  0  0  0  0
  1  2  2  0
  2  3  1  0
  2 22  1  0
  3  4  1  0
  3  5  1  0
  5  6  1  0
  5  7  1  0
  5  8  1  0
  8  9  2  0
  8 20  1  0
  9 10  1  0
  9 11  1  0
 11 12  1  0
 11 19  1  0
 12 13  1  0
 12 14  1  0
 12 15  1  0
 15 16  1  0
 15 17  1  0
 15 18  1  0
 19 20  2  0
 20 21  1  0
 22 23  1  0
 22 30  2  0
 23 24  1  0
 23 25  2  0
 25 26  1  0
 26 27  1  0
 26 28  2  0
 28 29  1  0
 28 30  1  0
 30 31  1  0
M  END
$$$$
