
     RDKit          3D

 26 27  0  0  0  0  0  0  0  0999 V2000
  -23.9884   12.3502   26.1986 O   0  0  0  0  0  0  0  0  0  0  0  0
  -24.0852   13.0050   27.2443 C   0  0  0  0  0  0  0  0  0  0  0  0
  -23.0314   12.9938   28.1682 N   0  0  0  0  0  0  0  0  0  0  0  0
  -21.8081   12.2423   27.8994 C   0  0  0  0  0  0  0  0  0  0  0  0
  -21.4308   11.8400   28.8471 H   0  0  0  0  0  0  0  0  0  0  0  0
  -22.0321   11.3908   27.2477 H   0  0  0  0  0  0  0  0  0  0  0  0
  -20.7983   13.1278   27.2784 C   0  0  0  0  0  0  0  0  0  0  0  0
  -20.5540   14.2959   27.8766 O   0  0  0  0  0  0  0  0  0  0  0  0
  -19.6313   14.9821   27.1897 N   0  0  0  0  0  0  0  0  0  0  0  0
  -19.2979   14.2611   26.1755 C   0  0  0  0  0  0  0  0  0  0  0  0
  -18.2862   14.7260   25.2045 C   0  0  0  0  0  0  0  0  0  0  0  0
  -18.2744   14.0900   24.3130 H   0  0  0  0  0  0  0  0  0  0  0  0
  -17.2866   14.6994   25.6512 H   0  0  0  0  0  0  0  0  0  0  0  0
  -18.4943   15.7514   24.8822 H   0  0  0  0  0  0  0  0  0  0  0  0
  -20.0173   13.0749   26.1886 C   0  0  0  0  0  0  0  0  0  0  0  0
  -19.9677   12.2853   25.4843 H   0  0  0  0  0  0  0  0  0  0  0  0
  -23.0726   13.6816   29.3640 N   0  0  0  0  0  0  0  0  0  0  0  0
  -24.1183   14.3818   29.6757 C   0  0  0  0  0  0  0  0  0  0  0  0
  -24.1422   15.1204   30.9840 C   0  0  0  0  0  0  0  0  0  0  0  0
  -23.2735   15.7842   31.0407 H   0  0  0  0  0  0  0  0  0  0  0  0
  -24.0924   14.3986   31.8053 H   0  0  0  0  0  0  0  0  0  0  0  0
  -25.0508   15.7177   31.0920 H   0  0  0  0  0  0  0  0  0  0  0  0
  -25.2371   14.4576   28.7961 C   0  0  0  0  0  0  0  0  0  0  0  0
  -26.0756   15.0410   29.0775 H   0  0  0  0  0  0  0  0  0  0  0  0
  -25.2222   13.7878   27.6078 C   0  0  0  0  0  0  0  0  0  0  0  0
  -26.0364   13.8237   26.9332 H   0  0  0  0  0  0  0  0  0  0  0  0
  1  2  2  0
  2  3  1  0
  2 25  1  0
  3  4  1  0
  3 17  1  0
  4  5  1  0
  4  6  1  0
  4  7  1  0
  7  8  1  0
  7 15  2  0
  8  9  1  0
  9 10  2  0
 10 11  1  0
 10 15  1  0
 11 12  1  0
 11 13  1  0
 11 14  1  0
 15 16  1  0
 17 18  2  0
 18 19  1  0
 18 23  1  0
 19 20  1  0
 19 21  1  0
 19 22  1  0
 23 24  1  0
 23 25  2  0
 25 26  1  0
M  END
$$$$
