
     RDKit          3D

 25 27  0  0  0  0  0  0  0  0999 V2000
  -19.5214   12.1120   29.0370 O   0  0  0  0  0  0  0  0  0  0  0  0
  -20.6106   12.3268   28.5084 C   0  0  0  0  0  0  0  0  0  0  0  0
  -20.6396   12.6570   27.1866 N   0  0  0  0  0  0  0  0  0  0  0  0
  -21.5806   12.8130   26.7894 H   0  0  0  0  0  0  0  0  0  0  0  0
  -19.4896   12.7851   26.3553 C   0  0  0  0  0  0  0  0  0  0  0  0
  -18.7754   13.5150   26.7292 H   0  0  0  0  0  0  0  0  0  0  0  0
  -19.6073   12.6704   24.8595 C   0  0  0  0  0  0  0  0  0  0  0  0
  -20.5749   12.4457   24.4276 H   0  0  0  0  0  0  0  0  0  0  0  0
  -18.9899   13.3237   24.2543 H   0  0  0  0  0  0  0  0  0  0  0  0
  -18.9240   11.5882   25.6424 C   0  0  0  0  0  0  0  0  0  0  0  0
  -17.8459   11.5083   25.5733 H   0  0  0  0  0  0  0  0  0  0  0  0
  -19.4350   10.6383   25.7502 H   0  0  0  0  0  0  0  0  0  0  0  0
  -21.8798   12.2458   29.1933 C   0  0  0  0  0  0  0  0  0  0  0  0
  -23.0980   12.6274   28.6894 C   0  0  0  0  0  0  0  0  0  0  0  0
  -23.9879   12.3587   29.7023 N   0  0  0  0  0  0  0  0  0  0  0  0
  -23.3935   11.8293   30.8045 N   0  0  0  0  0  0  0  0  0  0  0  0
  -22.1244   11.7689   30.4803 C   0  0  0  0  0  0  0  0  0  0  0  0
  -21.3763   11.3952   31.1347 H   0  0  0  0  0  0  0  0  0  0  0  0
  -25.3562   12.6208   29.5596 C   0  0  0  0  0  0  0  0  0  0  0  0
  -25.9625   12.3813   30.3941 H   0  0  0  0  0  0  0  0  0  0  0  0
  -25.7467   13.1554   28.3620 C   0  0  0  0  0  0  0  0  0  0  0  0
  -26.7640   13.3831   28.1775 H   0  0  0  0  0  0  0  0  0  0  0  0
  -24.7880   13.4212   27.3293 C   0  0  0  0  0  0  0  0  0  0  0  0
  -25.1145   13.8359   26.4102 H   0  0  0  0  0  0  0  0  0  0  0  0
  -23.5138   13.1741   27.4680 N   0  0  0  0  0  0  0  0  0  0  0  0
  1  2  2  0
  2  3  1  0
  2 13  1  0
  3  4  1  0
  3  5  1  0
  5  6  1  0
  5  7  1  0
  5 10  1  0
  7  8  1  0
  7  9  1  0
  7 10  1  0
 10 11  1  0
 10 12  1  0
 13 14  2  0
 13 17  1  0
 14 15  1  0
 14 25  1  0
 15 16  1  0
 15 19  1  0
 16 17  2  0
 17 18  1  0
 19 20  1  0
 19 21  2  0
 21 22  1  0
 21 23  1  0
 23 24  1  0
 23 25  2  0
M  END
$$$$
