
     RDKit          3D

 25 27  0  0  0  0  0  0  0  0999 V2000
  -22.0907   13.5932   27.0107 O   0  0  0  0  0  0  0  0  0  0  0  0
  -21.1444   13.1543   27.6618 C   0  0  0  0  0  0  0  0  0  0  0  0
  -21.4054   12.3379   28.7213 N   0  0  0  0  0  0  0  0  0  0  0  0
  -20.5744   11.9862   29.2247 H   0  0  0  0  0  0  0  0  0  0  0  0
  -22.7085   11.9526   29.1490 C   0  0  0  0  0  0  0  0  0  0  0  0
  -23.2122   11.3006   28.4391 H   0  0  0  0  0  0  0  0  0  0  0  0
  -23.5816   12.9129   29.9106 C   0  0  0  0  0  0  0  0  0  0  0  0
  -23.1859   13.8884   30.1659 H   0  0  0  0  0  0  0  0  0  0  0  0
  -24.6441   12.9049   29.6978 H   0  0  0  0  0  0  0  0  0  0  0  0
  -22.9975   11.7187   30.6059 C   0  0  0  0  0  0  0  0  0  0  0  0
  -23.6591   10.8999   30.8612 H   0  0  0  0  0  0  0  0  0  0  0  0
  -22.1994   11.8859   31.3202 H   0  0  0  0  0  0  0  0  0  0  0  0
  -19.7571   13.4381   27.3771 C   0  0  0  0  0  0  0  0  0  0  0  0
  -19.1883   14.6834   27.2801 C   0  0  0  0  0  0  0  0  0  0  0  0
  -17.8652   14.4357   27.0006 N   0  0  0  0  0  0  0  0  0  0  0  0
  -17.5787   13.1090   26.9218 N   0  0  0  0  0  0  0  0  0  0  0  0
  -18.7295   12.5235   27.1507 C   0  0  0  0  0  0  0  0  0  0  0  0
  -18.8512   11.4687   27.1603 H   0  0  0  0  0  0  0  0  0  0  0  0
  -16.9486   15.4802   26.8267 C   0  0  0  0  0  0  0  0  0  0  0  0
  -15.9525   15.1907   26.6138 H   0  0  0  0  0  0  0  0  0  0  0  0
  -17.4477   16.7482   26.9508 C   0  0  0  0  0  0  0  0  0  0  0  0
  -16.8184   17.5911   26.8318 H   0  0  0  0  0  0  0  0  0  0  0  0
  -18.8345   16.9659   27.2435 C   0  0  0  0  0  0  0  0  0  0  0  0
  -19.1980   17.9573   27.3345 H   0  0  0  0  0  0  0  0  0  0  0  0
  -19.6841   15.9881   27.4052 N   0  0  0  0  0  0  0  0  0  0  0  0
  1  2  2  0
  2  3  1  0
  2 13  1  0
  3  4  1  0
  3  5  1  0
  5  6  1  0
  5  7  1  0
  5 10  1  0
  7  8  1  0
  7  9  1  0
  7 10  1  0
 10 11  1  0
 10 12  1  0
 13 14  2  0
 13 17  1  0
 14 15  1  0
 14 25  1  0
 15 16  1  0
 15 19  1  0
 16 17  2  0
 17 18  1  0
 19 20  1  0
 19 21  2  0
 21 22  1  0
 21 23  1  0
 23 24  1  0
 23 25  2  0
M  END
$$$$
