
     RDKit          3D

 19 19  0  0  0  0  0  0  0  0999 V2000
  -18.0216   14.2231   24.1154 Br  0  0  0  0  0  0  0  0  0  0  0  0
  -19.1008   13.9142   25.6067 C   0  0  0  0  0  0  0  0  0  0  0  0
  -19.7904   12.7955   25.9171 C   0  0  0  0  0  0  0  0  0  0  0  0
  -19.8937   11.8684   25.4152 H   0  0  0  0  0  0  0  0  0  0  0  0
  -20.4150   13.0607   27.0856 N   0  0  0  0  0  0  0  0  0  0  0  0
  -21.2768   12.1884   27.8584 C   0  0  0  0  0  0  0  0  0  0  0  0
  -21.2585   11.2044   27.3767 H   0  0  0  0  0  0  0  0  0  0  0  0
  -20.8300   12.0972   28.8540 H   0  0  0  0  0  0  0  0  0  0  0  0
  -22.6942   12.7318   27.9532 C   0  0  0  0  0  0  0  0  0  0  0  0
  -22.6955   13.8129   28.1354 H   0  0  0  0  0  0  0  0  0  0  0  0
  -23.2168   12.2327   28.7766 H   0  0  0  0  0  0  0  0  0  0  0  0
  -23.3889   12.4425   26.7368 O   0  0  0  0  0  0  0  0  0  0  0  0
  -24.7648   12.7898   26.8211 C   0  0  0  0  0  0  0  0  0  0  0  0
  -25.2432   12.5343   25.8722 H   0  0  0  0  0  0  0  0  0  0  0  0
  -24.8778   13.8643   26.9916 H   0  0  0  0  0  0  0  0  0  0  0  0
  -25.2533   12.2275   27.6225 H   0  0  0  0  0  0  0  0  0  0  0  0
  -20.1487   14.3211   27.5289 N   0  0  0  0  0  0  0  0  0  0  0  0
  -19.3488   14.8277   26.6255 C   0  0  0  0  0  0  0  0  0  0  0  0
  -18.9542   15.8096   26.6794 H   0  0  0  0  0  0  0  0  0  0  0  0
  1  2  1  0
  2  3  2  0
  2 18  1  0
  3  4  1  0
  3  5  1  0
  5  6  1  0
  5 17  1  0
  6  7  1  0
  6  8  1  0
  6  9  1  0
  9 10  1  0
  9 11  1  0
  9 12  1  0
 12 13  1  0
 13 14  1  0
 13 15  1  0
 13 16  1  0
 17 18  2  0
 18 19  1  0
M  END
$$$$
