
     RDKit          3D

 18 18  0  0  0  0  0  0  0  0999 V2000
  -21.5345   12.8149   28.9879 O   0  0  0  0  0  0  0  0  0  0  0  0
  -21.3381   12.5707   27.8064 C   0  0  0  0  0  0  0  0  0  0  0  0
  -22.3576   12.7408   26.9234 N   0  0  0  0  0  0  0  0  0  0  0  0
  -22.1615   12.6094   25.9255 H   0  0  0  0  0  0  0  0  0  0  0  0
  -23.6931   13.1297   27.3312 C   0  0  0  0  0  0  0  0  0  0  0  0
  -23.6106   13.9535   28.0490 H   0  0  0  0  0  0  0  0  0  0  0  0
  -24.2189   13.5045   26.4466 H   0  0  0  0  0  0  0  0  0  0  0  0
  -24.4521   11.9698   27.9448 C   0  0  0  0  0  0  0  0  0  0  0  0
  -23.9334   11.5878   28.8303 H   0  0  0  0  0  0  0  0  0  0  0  0
  -24.5487   11.1438   27.2321 H   0  0  0  0  0  0  0  0  0  0  0  0
  -25.4564   12.2847   28.2435 H   0  0  0  0  0  0  0  0  0  0  0  0
  -20.0716   12.1359   27.2939 C   0  0  0  0  0  0  0  0  0  0  0  0
  -19.9407   11.6384   26.0648 N   0  0  0  0  0  0  0  0  0  0  0  0
  -20.7131   11.5185   25.3800 H   0  0  0  0  0  0  0  0  0  0  0  0
  -18.6696   11.3063   25.8200 N   0  0  0  0  0  0  0  0  0  0  0  0
  -17.9687   11.5929   26.8987 N   0  0  0  0  0  0  0  0  0  0  0  0
  -18.8188   12.1016   27.8030 C   0  0  0  0  0  0  0  0  0  0  0  0
  -18.5207   12.4219   28.7686 H   0  0  0  0  0  0  0  0  0  0  0  0
  1  2  2  0
  2  3  1  0
  2 12  1  0
  3  4  1  0
  3  5  1  0
  5  6  1  0
  5  7  1  0
  5  8  1  0
  8  9  1  0
  8 10  1  0
  8 11  1  0
 12 13  1  0
 12 17  2  0
 13 14  1  0
 13 15  1  0
 15 16  2  0
 16 17  1  0
 17 18  1  0
M  END
$$$$
