
     RDKit          3D

 29 30  0  0  0  0  0  0  0  0999 V2000
  -18.3640   13.6446   24.6445 C   0  0  0  0  0  0  0  0  0  0  0  0
  -17.3796   13.8323   24.2017 H   0  0  0  0  0  0  0  0  0  0  0  0
  -19.1075   14.2285   24.0888 H   0  0  0  0  0  0  0  0  0  0  0  0
  -18.6176   12.5895   24.4938 H   0  0  0  0  0  0  0  0  0  0  0  0
  -18.3866   13.9952   26.1287 C   0  0  0  0  0  0  0  0  0  0  0  0
  -19.6846   13.7061   26.6489 O   0  0  0  0  0  0  0  0  0  0  0  0
  -20.3153   14.2875   26.1944 H   0  0  0  0  0  0  0  0  0  0  0  0
  -18.0133   15.4238   26.3684 C   0  0  0  0  0  0  0  0  0  0  0  0
  -16.8154   15.8850   26.9041 C   0  0  0  0  0  0  0  0  0  0  0  0
  -16.0059   15.2798   27.2203 H   0  0  0  0  0  0  0  0  0  0  0  0
  -16.7981   17.1871   26.9759 N   0  0  0  0  0  0  0  0  0  0  0  0
  -18.0049   17.5845   26.4784 N   0  0  0  0  0  0  0  0  0  0  0  0
  -18.3565   18.9823   26.3991 C   0  0  0  0  0  0  0  0  0  0  0  0
  -17.9690   19.3628   25.4448 H   0  0  0  0  0  0  0  0  0  0  0  0
  -19.8563   19.2622   26.4727 C   0  0  0  0  0  0  0  0  0  0  0  0
  -20.3738   19.0066   25.5421 H   0  0  0  0  0  0  0  0  0  0  0  0
  -20.3332   18.6927   27.2800 H   0  0  0  0  0  0  0  0  0  0  0  0
  -19.9380   20.7534   26.7838 C   0  0  0  0  0  0  0  0  0  0  0  0
  -20.0458   21.3296   25.8576 H   0  0  0  0  0  0  0  0  0  0  0  0
  -20.8040   20.9816   27.4131 H   0  0  0  0  0  0  0  0  0  0  0  0
  -18.6218   21.1203   27.4705 C   0  0  0  0  0  0  0  0  0  0  0  0
  -18.7866   21.5389   28.4683 H   0  0  0  0  0  0  0  0  0  0  0  0
  -18.0949   21.8799   26.8805 H   0  0  0  0  0  0  0  0  0  0  0  0
  -17.8005   19.8367   27.5368 C   0  0  0  0  0  0  0  0  0  0  0  0
  -17.9496   19.3551   28.5114 H   0  0  0  0  0  0  0  0  0  0  0  0
  -16.7279   20.0281   27.4272 H   0  0  0  0  0  0  0  0  0  0  0  0
  -18.7528   16.5258   26.1030 C   0  0  0  0  0  0  0  0  0  0  0  0
  -19.7245   16.6260   25.6926 H   0  0  0  0  0  0  0  0  0  0  0  0
  -17.6799   13.3474   26.6615 H   0  0  0  0  0  0  0  0  0  0  0  0
  1  2  1  0
  1  3  1  0
  1  4  1  0
  1  5  1  0
  5  6  1  0
  5  8  1  0
  5 29  1  0
  6  7  1  0
  8  9  1  0
  8 27  2  0
  9 10  1  0
  9 11  2  0
 11 12  1  0
 12 13  1  0
 12 27  1  0
 13 14  1  0
 13 15  1  0
 13 24  1  0
 15 16  1  0
 15 17  1  0
 15 18  1  0
 18 19  1  0
 18 20  1  0
 18 21  1  0
 21 22  1  0
 21 23  1  0
 21 24  1  0
 24 25  1  0
 24 26  1  0
 27 28  1  0
M  END
$$$$
