
     RDKit          3D

 26 28  0  0  0  0  0  0  0  0999 V2000
  -16.2680   15.7397   27.8936 O   0  0  0  0  0  0  0  0  0  0  0  0
  -17.1496   15.9013   27.0558 C   0  0  0  0  0  0  0  0  0  0  0  0
  -17.4749   17.1884   26.7086 N   0  0  0  0  0  0  0  0  0  0  0  0
  -18.1258   17.3299   25.9308 H   0  0  0  0  0  0  0  0  0  0  0  0
  -16.9308   18.3419   27.3527 C   0  0  0  0  0  0  0  0  0  0  0  0
  -17.5627   18.7148   28.1562 H   0  0  0  0  0  0  0  0  0  0  0  0
  -16.1643   19.3739   26.5708 C   0  0  0  0  0  0  0  0  0  0  0  0
  -15.9931   19.2085   25.5138 H   0  0  0  0  0  0  0  0  0  0  0  0
  -16.2996   20.4143   26.8416 H   0  0  0  0  0  0  0  0  0  0  0  0
  -15.4453   18.4841   27.5410 C   0  0  0  0  0  0  0  0  0  0  0  0
  -15.0992   18.9147   28.4728 H   0  0  0  0  0  0  0  0  0  0  0  0
  -14.8016   17.7087   27.1437 H   0  0  0  0  0  0  0  0  0  0  0  0
  -17.8266   14.7756   26.3756 C   0  0  0  0  0  0  0  0  0  0  0  0
  -17.9319   13.5511   27.0625 C   0  0  0  0  0  0  0  0  0  0  0  0
  -17.5329   13.4404   28.0373 H   0  0  0  0  0  0  0  0  0  0  0  0
  -18.5669   12.4891   26.4407 C   0  0  0  0  0  0  0  0  0  0  0  0
  -18.7461   11.2481   26.9633 O   0  0  0  0  0  0  0  0  0  0  0  0
  -19.4485   10.5967   25.8844 C   0  0  0  0  0  0  0  0  0  0  0  0
  -18.8621    9.7319   25.5558 H   0  0  0  0  0  0  0  0  0  0  0  0
  -20.4166   10.2440   26.2583 H   0  0  0  0  0  0  0  0  0  0  0  0
  -19.6781   11.4571   24.7487 O   0  0  0  0  0  0  0  0  0  0  0  0
  -19.0980   12.6084   25.1802 C   0  0  0  0  0  0  0  0  0  0  0  0
  -19.0241   13.8013   24.4752 C   0  0  0  0  0  0  0  0  0  0  0  0
  -19.4471   13.8769   23.5060 H   0  0  0  0  0  0  0  0  0  0  0  0
  -18.3892   14.8870   25.0796 C   0  0  0  0  0  0  0  0  0  0  0  0
  -18.3425   15.8094   24.5593 H   0  0  0  0  0  0  0  0  0  0  0  0
  1  2  2  0
  2  3  1  0
  2 13  1  0
  3  4  1  0
  3  5  1  0
  5  6  1  0
  5  7  1  0
  5 10  1  0
  7  8  1  0
  7  9  1  0
  7 10  1  0
 10 11  1  0
 10 12  1  0
 13 14  1  0
 13 25  2  0
 14 15  1  0
 14 16  2  0
 16 17  1  0
 16 22  1  0
 17 18  1  0
 18 19  1  0
 18 20  1  0
 18 21  1  0
 21 22  1  0
 22 23  2  0
 23 24  1  0
 23 25  1  0
 25 26  1  0
M  END
$$$$
