
     RDKit          3D

 16 17  0  0  0  0  0  0  0  0999 V2000
  -23.4717   15.6387   31.3612 Br  0  0  0  0  0  0  0  0  0  0  0  0
  -24.4998   15.6768   29.7694 C   0  0  0  0  0  0  0  0  0  0  0  0
  -24.5566   14.5910   28.8534 C   0  0  0  0  0  0  0  0  0  0  0  0
  -25.3637   14.7484   27.7009 C   0  0  0  0  0  0  0  0  0  0  0  0
  -26.0660   15.8947   27.4687 N   0  0  0  0  0  0  0  0  0  0  0  0
  -26.0034   16.8798   28.3177 C   0  0  0  0  0  0  0  0  0  0  0  0
  -26.5617   17.7600   28.1107 H   0  0  0  0  0  0  0  0  0  0  0  0
  -25.2245   16.8078   29.4884 C   0  0  0  0  0  0  0  0  0  0  0  0
  -25.2067   17.6371   30.1481 H   0  0  0  0  0  0  0  0  0  0  0  0
  -25.4778   13.7595   26.7679 N   0  0  0  0  0  0  0  0  0  0  0  0
  -24.8342   12.6367   26.9273 C   0  0  0  0  0  0  0  0  0  0  0  0
  -24.9420   11.8849   26.1843 H   0  0  0  0  0  0  0  0  0  0  0  0
  -24.0091   12.3990   28.0471 C   0  0  0  0  0  0  0  0  0  0  0  0
  -23.5076   11.4691   28.1307 H   0  0  0  0  0  0  0  0  0  0  0  0
  -23.8631   13.3632   29.0116 C   0  0  0  0  0  0  0  0  0  0  0  0
  -23.2440   13.1871   29.8531 H   0  0  0  0  0  0  0  0  0  0  0  0
  1  2  1  0
  2  3  1  0
  2  8  2  0
  3  4  1  0
  3 15  2  0
  4  5  1  0
  4 10  2  0
  5  6  2  0
  6  7  1  0
  6  8  1  0
  8  9  1  0
 10 11  1  0
 11 12  1  0
 11 13  2  0
 13 14  1  0
 13 15  1  0
 15 16  1  0
M  END
$$$$
