
     RDKit          3D

 24 24  0  0  0  0  0  0  0  0999 V2000
  -17.7811   12.5554   27.8555 O   0  0  0  0  0  0  0  0  0  0  0  0
  -18.3190   12.6204   28.6647 H   0  0  0  0  0  0  0  0  0  0  0  0
  -18.6542   12.1596   26.8043 C   0  0  0  0  0  0  0  0  0  0  0  0
  -18.0496   11.8341   25.9523 H   0  0  0  0  0  0  0  0  0  0  0  0
  -19.2409   11.3083   27.1630 H   0  0  0  0  0  0  0  0  0  0  0  0
  -19.5990   13.3041   26.4152 C   0  0  0  0  0  0  0  0  0  0  0  0
  -20.0938   13.7228   27.2994 H   0  0  0  0  0  0  0  0  0  0  0  0
  -20.4079   12.8896   25.8003 H   0  0  0  0  0  0  0  0  0  0  0  0
  -18.9067   14.3517   25.6324 N   0  0  0  0  0  0  0  0  0  0  0  0
  -18.6455   14.0149   24.2332 C   0  0  0  0  0  0  0  0  0  0  0  0
  -18.8723   12.9640   24.0176 H   0  0  0  0  0  0  0  0  0  0  0  0
  -17.5891   14.1683   23.9875 H   0  0  0  0  0  0  0  0  0  0  0  0
  -19.2671   14.6253   23.5691 H   0  0  0  0  0  0  0  0  0  0  0  0
  -18.5460   15.5329   26.2339 C   0  0  0  0  0  0  0  0  0  0  0  0
  -17.5164   15.4369   27.0880 N   0  0  0  0  0  0  0  0  0  0  0  0
  -17.1225   14.4977   27.2116 H   0  0  0  0  0  0  0  0  0  0  0  0
  -17.0051   16.5084   27.7646 C   0  0  0  0  0  0  0  0  0  0  0  0
  -16.1872   16.2996   28.4095 H   0  0  0  0  0  0  0  0  0  0  0  0
  -17.5616   17.7518   27.5752 C   0  0  0  0  0  0  0  0  0  0  0  0
  -17.1805   18.5979   28.0889 H   0  0  0  0  0  0  0  0  0  0  0  0
  -18.6495   17.9041   26.6975 C   0  0  0  0  0  0  0  0  0  0  0  0
  -19.0897   18.8618   26.5552 H   0  0  0  0  0  0  0  0  0  0  0  0
  -19.1421   16.8058   26.0337 C   0  0  0  0  0  0  0  0  0  0  0  0
  -19.9713   16.9049   25.3852 H   0  0  0  0  0  0  0  0  0  0  0  0
  1  2  1  0
  1  3  1  0
  3  4  1  0
  3  5  1  0
  3  6  1  0
  6  7  1  0
  6  8  1  0
  6  9  1  0
  9 10  1  0
  9 14  1  0
 10 11  1  0
 10 12  1  0
 10 13  1  0
 14 15  1  0
 14 23  2  0
 15 16  1  0
 15 17  2  0
 17 18  1  0
 17 19  1  0
 19 20  1  0
 19 21  2  0
 21 22  1  0
 21 23  1  0
 23 24  1  0
M  END
$$$$
