
     RDKit          3D

 29 30  0  0  0  0  0  0  0  0999 V2000
  -17.6433   16.9766   27.8139 O   0  0  0  0  0  0  0  0  0  0  0  0
  -16.9454   17.0787   26.8225 C   0  0  0  0  0  0  0  0  0  0  0  0
  -17.0352   16.1724   25.8013 N   0  0  0  0  0  0  0  0  0  0  0  0
  -16.3974   16.3358   25.0136 H   0  0  0  0  0  0  0  0  0  0  0  0
  -17.8752   15.0700   25.7115 C   0  0  0  0  0  0  0  0  0  0  0  0
  -17.8796   14.1130   24.7606 C   0  0  0  0  0  0  0  0  0  0  0  0
  -17.2824   13.9684   23.9006 H   0  0  0  0  0  0  0  0  0  0  0  0
  -18.8796   13.2702   25.1203 N   0  0  0  0  0  0  0  0  0  0  0  0
  -19.3145   12.0721   24.4357 C   0  0  0  0  0  0  0  0  0  0  0  0
  -20.3184   12.2627   24.0391 H   0  0  0  0  0  0  0  0  0  0  0  0
  -18.6433   11.9108   23.5853 H   0  0  0  0  0  0  0  0  0  0  0  0
  -19.3154   10.8584   25.3474 C   0  0  0  0  0  0  0  0  0  0  0  0
  -19.6415    9.9702   24.7977 H   0  0  0  0  0  0  0  0  0  0  0  0
  -18.3144   10.6659   25.7467 H   0  0  0  0  0  0  0  0  0  0  0  0
  -19.9919   11.0023   26.1963 H   0  0  0  0  0  0  0  0  0  0  0  0
  -19.4997   13.6672   26.2709 N   0  0  0  0  0  0  0  0  0  0  0  0
  -18.8815   14.7649   26.6220 C   0  0  0  0  0  0  0  0  0  0  0  0
  -19.1318   15.3257   27.4849 H   0  0  0  0  0  0  0  0  0  0  0  0
  -15.8919   18.2017   26.5874 C   0  0  0  0  0  0  0  0  0  0  0  0
  -16.3091   19.0572   26.0345 H   0  0  0  0  0  0  0  0  0  0  0  0
  -15.0879   18.6889   27.8243 C   0  0  0  0  0  0  0  0  0  0  0  0
  -14.9640   17.9363   28.6105 H   0  0  0  0  0  0  0  0  0  0  0  0
  -15.4379   19.6206   28.2780 H   0  0  0  0  0  0  0  0  0  0  0  0
  -13.8651   18.8246   26.8978 C   0  0  0  0  0  0  0  0  0  0  0  0
  -12.9040   18.5411   27.3334 H   0  0  0  0  0  0  0  0  0  0  0  0
  -13.7716   19.8134   26.4344 H   0  0  0  0  0  0  0  0  0  0  0  0
  -14.5249   17.7739   25.9848 C   0  0  0  0  0  0  0  0  0  0  0  0
  -14.2305   16.7430   26.2153 H   0  0  0  0  0  0  0  0  0  0  0  0
  -14.4068   17.9442   24.9117 H   0  0  0  0  0  0  0  0  0  0  0  0
  1  2  2  0
  2  3  1  0
  2 19  1  0
  3  4  1  0
  3  5  1  0
  5  6  2  0
  5 17  1  0
  6  7  1  0
  6  8  1  0
  8  9  1  0
  8 16  1  0
  9 10  1  0
  9 11  1  0
  9 12  1  0
 12 13  1  0
 12 14  1  0
 12 15  1  0
 16 17  2  0
 17 18  1  0
 19 20  1  0
 19 21  1  0
 19 27  1  0
 21 22  1  0
 21 23  1  0
 21 24  1  0
 24 25  1  0
 24 26  1  0
 24 27  1  0
 27 28  1  0
 27 29  1  0
M  END
$$$$
