
     RDKit          3D

 20 20  0  0  0  0  0  0  0  0999 V2000
  -20.1482   12.5515   27.5749 S   0  0  0  0  0  0  0  0  0  0  0  0
  -19.9148   13.7568   26.8130 O   0  0  0  0  0  0  0  0  0  0  0  0
  -19.3421   12.2003   28.7239 O   0  0  0  0  0  0  0  0  0  0  0  0
  -20.0625   11.2589   26.4955 N   0  0  0  0  0  0  0  0  0  0  0  0
  -20.7670   11.3235   25.7573 H   0  0  0  0  0  0  0  0  0  0  0  0
  -19.1121   11.1041   26.1494 H   0  0  0  0  0  0  0  0  0  0  0  0
  -21.8437   12.5044   28.0466 C   0  0  0  0  0  0  0  0  0  0  0  0
  -22.8443   12.8098   27.1192 C   0  0  0  0  0  0  0  0  0  0  0  0
  -22.5955   13.0951   26.1298 H   0  0  0  0  0  0  0  0  0  0  0  0
  -24.1719   12.7291   27.5112 C   0  0  0  0  0  0  0  0  0  0  0  0
  -25.1272   13.0268   26.6184 F   0  0  0  0  0  0  0  0  0  0  0  0
  -24.5488   12.3465   28.7898 C   0  0  0  0  0  0  0  0  0  0  0  0
  -25.5755   12.2947   29.0469 H   0  0  0  0  0  0  0  0  0  0  0  0
  -23.5587   12.0297   29.7169 C   0  0  0  0  0  0  0  0  0  0  0  0
  -23.9315   11.5656   31.0946 C   0  0  0  0  0  0  0  0  0  0  0  0
  -24.8799   12.0098   31.4147 H   0  0  0  0  0  0  0  0  0  0  0  0
  -23.1717   11.8621   31.8251 H   0  0  0  0  0  0  0  0  0  0  0  0
  -24.0286   10.4761   31.1087 H   0  0  0  0  0  0  0  0  0  0  0  0
  -22.2153   12.1043   29.3376 C   0  0  0  0  0  0  0  0  0  0  0  0
  -21.4561   11.8492   30.0350 H   0  0  0  0  0  0  0  0  0  0  0  0
  1  2  2  0
  1  3  2  0
  1  4  1  0
  1  7  1  0
  4  5  1  0
  4  6  1  0
  7  8  1  0
  7 19  2  0
  8  9  1  0
  8 10  2  0
 10 11  1  0
 10 12  1  0
 12 13  1  0
 12 14  2  0
 14 15  1  0
 14 19  1  0
 15 16  1  0
 15 17  1  0
 15 18  1  0
 19 20  1  0
M  END
$$$$
