
     RDKit          3D

 23 24  0  0  0  0  0  0  0  0999 V2000
  -21.8784   14.3156   28.7651 O   0  0  0  0  0  0  0  0  0  0  0  0
  -21.9337   13.4467   27.9005 C   0  0  0  0  0  0  0  0  0  0  0  0
  -20.7426   13.0936   27.2875 N   0  0  0  0  0  0  0  0  0  0  0  0
  -20.5450   12.1770   26.1698 C   0  0  0  0  0  0  0  0  0  0  0  0
  -20.9774   11.1963   26.3716 H   0  0  0  0  0  0  0  0  0  0  0  0
  -21.0265   12.6114   25.2875 H   0  0  0  0  0  0  0  0  0  0  0  0
  -19.0331   12.0821   26.0014 C   0  0  0  0  0  0  0  0  0  0  0  0
  -18.6389   11.2699   26.6246 H   0  0  0  0  0  0  0  0  0  0  0  0
  -18.7362   11.8934   24.9672 H   0  0  0  0  0  0  0  0  0  0  0  0
  -18.5382   13.4191   26.5312 C   0  0  0  0  0  0  0  0  0  0  0  0
  -18.6647   14.1916   25.7631 H   0  0  0  0  0  0  0  0  0  0  0  0
  -17.4869   13.3990   26.8307 H   0  0  0  0  0  0  0  0  0  0  0  0
  -19.4761   13.6847   27.6971 C   0  0  0  0  0  0  0  0  0  0  0  0
  -19.5805   14.7510   27.9165 H   0  0  0  0  0  0  0  0  0  0  0  0
  -19.1449   13.1663   28.6046 H   0  0  0  0  0  0  0  0  0  0  0  0
  -23.1871   12.8505   27.4794 C   0  0  0  0  0  0  0  0  0  0  0  0
  -23.3921   11.5063   27.3791 C   0  0  0  0  0  0  0  0  0  0  0  0
  -22.7544   10.6855   27.5839 H   0  0  0  0  0  0  0  0  0  0  0  0
  -24.6483   11.3552   26.9300 N   0  0  0  0  0  0  0  0  0  0  0  0
  -25.1088   10.4430   26.7464 H   0  0  0  0  0  0  0  0  0  0  0  0
  -25.2679   12.5509   26.7271 N   0  0  0  0  0  0  0  0  0  0  0  0
  -24.3773   13.4443   27.0514 C   0  0  0  0  0  0  0  0  0  0  0  0
  -24.5526   14.4873   26.9784 H   0  0  0  0  0  0  0  0  0  0  0  0
  1  2  2  0
  2  3  1  0
  2 16  1  0
  3  4  1  0
  3 13  1  0
  4  5  1  0
  4  6  1  0
  4  7  1  0
  7  8  1  0
  7  9  1  0
  7 10  1  0
 10 11  1  0
 10 12  1  0
 10 13  1  0
 13 14  1  0
 13 15  1  0
 16 17  2  0
 16 22  1  0
 17 18  1  0
 17 19  1  0
 19 20  1  0
 19 21  1  0
 21 22  2  0
 22 23  1  0
M  END
$$$$
