
     RDKit          3D

 21 21  0  0  0  0  0  0  0  0999 V2000
  -22.7829    8.7265   31.3977 Br  0  0  0  0  0  0  0  0  0  0  0  0
  -23.3935   10.3801   30.7096 C   0  0  0  0  0  0  0  0  0  0  0  0
  -23.0960   10.7430   29.4005 C   0  0  0  0  0  0  0  0  0  0  0  0
  -22.5271   10.1048   28.7795 H   0  0  0  0  0  0  0  0  0  0  0  0
  -23.5481   11.9635   28.9077 C   0  0  0  0  0  0  0  0  0  0  0  0
  -23.2099   12.2828   27.6185 O   0  0  0  0  0  0  0  0  0  0  0  0
  -21.8389   12.6831   27.3790 C   0  0  0  0  0  0  0  0  0  0  0  0
  -21.7734   13.0791   26.3669 H   0  0  0  0  0  0  0  0  0  0  0  0
  -21.2028   11.8071   27.4969 H   0  0  0  0  0  0  0  0  0  0  0  0
  -21.5610   13.4488   28.1026 H   0  0  0  0  0  0  0  0  0  0  0  0
  -24.3141   12.8319   29.6977 C   0  0  0  0  0  0  0  0  0  0  0  0
  -24.8607   14.1616   29.1772 C   0  0  0  0  0  0  0  0  0  0  0  0
  -24.1418   14.5945   28.4991 H   0  0  0  0  0  0  0  0  0  0  0  0
  -25.1100   14.8275   29.9864 H   0  0  0  0  0  0  0  0  0  0  0  0
  -26.1235   13.8976   28.3884 C   0  0  0  0  0  0  0  0  0  0  0  0
  -26.2749   14.5254   27.3159 O   0  0  0  0  0  0  0  0  0  0  0  0
  -26.9641   13.1096   28.8762 O   0  0  0  0  0  0  0  0  0  0  0  0
  -24.5958   12.4543   31.0096 C   0  0  0  0  0  0  0  0  0  0  0  0
  -25.1571   13.1090   31.6299 H   0  0  0  0  0  0  0  0  0  0  0  0
  -24.1404   11.2388   31.5146 C   0  0  0  0  0  0  0  0  0  0  0  0
  -24.3603   10.9700   32.5147 H   0  0  0  0  0  0  0  0  0  0  0  0
  1  2  1  0
  2  3  1  0
  2 20  2  0
  3  4  1  0
  3  5  2  0
  5  6  1  0
  5 11  1  0
  6  7  1  0
  7  8  1  0
  7  9  1  0
  7 10  1  0
 11 12  1  0
 11 18  2  0
 12 13  1  0
 12 14  1  0
 12 15  1  0
 15 16  1  0
 15 17  2  0
 18 19  1  0
 18 20  1  0
 20 21  1  0
M  END
$$$$
