
     RDKit          3D

 23 24  0  0  0  0  0  0  0  0999 V2000
  -20.3128   14.2590   26.3832 O   0  0  0  0  0  0  0  0  0  0  0  0
  -20.4304   13.0378   26.3636 C   0  0  0  0  0  0  0  0  0  0  0  0
  -21.4281   12.4900   27.1533 N   0  0  0  0  0  0  0  0  0  0  0  0
  -21.7110   11.0789   27.3923 C   0  0  0  0  0  0  0  0  0  0  0  0
  -21.8570   10.5334   26.4593 H   0  0  0  0  0  0  0  0  0  0  0  0
  -20.8609   10.6509   27.9338 H   0  0  0  0  0  0  0  0  0  0  0  0
  -22.9818   11.0694   28.2339 C   0  0  0  0  0  0  0  0  0  0  0  0
  -23.8620   11.0459   27.5795 H   0  0  0  0  0  0  0  0  0  0  0  0
  -23.0341   10.2106   28.9070 H   0  0  0  0  0  0  0  0  0  0  0  0
  -22.9251   12.4010   28.9666 C   0  0  0  0  0  0  0  0  0  0  0  0
  -22.2488   12.3221   29.8263 H   0  0  0  0  0  0  0  0  0  0  0  0
  -23.9025   12.7347   29.3257 H   0  0  0  0  0  0  0  0  0  0  0  0
  -22.3338   13.3328   27.9219 C   0  0  0  0  0  0  0  0  0  0  0  0
  -21.8122   14.1847   28.3672 H   0  0  0  0  0  0  0  0  0  0  0  0
  -23.1032   13.7065   27.2360 H   0  0  0  0  0  0  0  0  0  0  0  0
  -19.5350   12.1847   25.6059 C   0  0  0  0  0  0  0  0  0  0  0  0
  -19.4071   12.2338   24.2494 C   0  0  0  0  0  0  0  0  0  0  0  0
  -19.8700   12.8544   23.5263 H   0  0  0  0  0  0  0  0  0  0  0  0
  -18.5215   11.2781   23.9255 N   0  0  0  0  0  0  0  0  0  0  0  0
  -18.2082   11.0597   22.9600 H   0  0  0  0  0  0  0  0  0  0  0  0
  -18.0723   10.6027   25.0196 N   0  0  0  0  0  0  0  0  0  0  0  0
  -18.6952   11.1494   26.0245 C   0  0  0  0  0  0  0  0  0  0  0  0
  -18.5738   10.8228   27.0258 H   0  0  0  0  0  0  0  0  0  0  0  0
  1  2  2  0
  2  3  1  0
  2 16  1  0
  3  4  1  0
  3 13  1  0
  4  5  1  0
  4  6  1  0
  4  7  1  0
  7  8  1  0
  7  9  1  0
  7 10  1  0
 10 11  1  0
 10 12  1  0
 10 13  1  0
 13 14  1  0
 13 15  1  0
 16 17  2  0
 16 22  1  0
 17 18  1  0
 17 19  1  0
 19 20  1  0
 19 21  1  0
 21 22  2  0
 22 23  1  0
M  END
$$$$
