
     RDKit          3D

 16 16  0  0  0  0  0  0  0  0999 V2000
  -19.3799   14.0187   25.7821 O   0  0  0  0  0  0  0  0  0  0  0  0
  -18.4043   14.7419   25.0315 C   0  0  0  0  0  0  0  0  0  0  0  0
  -17.5846   14.0697   24.7495 H   0  0  0  0  0  0  0  0  0  0  0  0
  -18.8566   15.1492   24.1200 H   0  0  0  0  0  0  0  0  0  0  0  0
  -17.8859   15.8368   25.9002 C   0  0  0  0  0  0  0  0  0  0  0  0
  -16.2254   15.9246   26.3120 S   0  0  0  0  0  0  0  0  0  0  0  0
  -16.6286   17.3095   27.2135 C   0  0  0  0  0  0  0  0  0  0  0  0
  -15.6787   17.9805   27.8866 N   0  0  0  0  0  0  0  0  0  0  0  0
  -14.7076   17.6948   27.8805 H   0  0  0  0  0  0  0  0  0  0  0  0
  -15.9194   18.8048   28.4239 H   0  0  0  0  0  0  0  0  0  0  0  0
  -17.8798   17.6481   27.2012 N   0  0  0  0  0  0  0  0  0  0  0  0
  -18.6143   16.7757   26.4252 N   0  0  0  0  0  0  0  0  0  0  0  0
  -18.7869   13.2972   26.8525 C   0  0  0  0  0  0  0  0  0  0  0  0
  -19.5775   12.7652   27.3890 H   0  0  0  0  0  0  0  0  0  0  0  0
  -18.2921   13.9813   27.5484 H   0  0  0  0  0  0  0  0  0  0  0  0
  -18.0705   12.5639   26.4698 H   0  0  0  0  0  0  0  0  0  0  0  0
  1  2  1  0
  1 13  1  0
  2  3  1  0
  2  4  1  0
  2  5  1  0
  5  6  1  0
  5 12  2  0
  6  7  1  0
  7  8  1  0
  7 11  2  0
  8  9  1  0
  8 10  1  0
 11 12  1  0
 13 14  1  0
 13 15  1  0
 13 16  1  0
M  END
$$$$
