
     RDKit          3D

 24 24  0  0  0  0  0  0  0  0999 V2000
  -21.6764   14.4192   28.4732 O   0  0  0  0  0  0  0  0  0  0  0  0
  -21.3285   13.3409   28.0084 C   0  0  0  0  0  0  0  0  0  0  0  0
  -21.9000   12.1485   28.3293 O   0  0  0  0  0  0  0  0  0  0  0  0
  -23.0178   12.2380   29.2220 C   0  0  0  0  0  0  0  0  0  0  0  0
  -22.8546   13.0510   29.9375 H   0  0  0  0  0  0  0  0  0  0  0  0
  -23.9323   12.4266   28.6492 H   0  0  0  0  0  0  0  0  0  0  0  0
  -23.1381   10.9202   29.9619 C   0  0  0  0  0  0  0  0  0  0  0  0
  -22.2204   10.7057   30.5203 H   0  0  0  0  0  0  0  0  0  0  0  0
  -23.2823   10.0950   29.2563 H   0  0  0  0  0  0  0  0  0  0  0  0
  -23.9800   10.9396   30.6599 H   0  0  0  0  0  0  0  0  0  0  0  0
  -20.3092   13.2251   27.0989 N   0  0  0  0  0  0  0  0  0  0  0  0
  -19.5865   14.4025   26.6195 C   0  0  0  0  0  0  0  0  0  0  0  0
  -19.8814   14.5415   25.5728 H   0  0  0  0  0  0  0  0  0  0  0  0
  -19.8720   15.3013   27.1754 H   0  0  0  0  0  0  0  0  0  0  0  0
  -18.0769   14.1785   26.7088 C   0  0  0  0  0  0  0  0  0  0  0  0
  -17.7472   14.1124   27.7528 H   0  0  0  0  0  0  0  0  0  0  0  0
  -17.5451   15.0128   26.2401 H   0  0  0  0  0  0  0  0  0  0  0  0
  -17.6971   12.9768   26.0226 O   0  0  0  0  0  0  0  0  0  0  0  0
  -18.3432   11.8333   26.6023 C   0  0  0  0  0  0  0  0  0  0  0  0
  -18.0067   10.9467   26.0556 H   0  0  0  0  0  0  0  0  0  0  0  0
  -18.0165   11.7305   27.6444 H   0  0  0  0  0  0  0  0  0  0  0  0
  -19.8647   11.9594   26.5110 C   0  0  0  0  0  0  0  0  0  0  0  0
  -20.3424   11.0981   26.9859 H   0  0  0  0  0  0  0  0  0  0  0  0
  -20.1745   11.9825   25.4599 H   0  0  0  0  0  0  0  0  0  0  0  0
  1  2  2  0
  2  3  1  0
  2 11  1  0
  3  4  1  0
  4  5  1  0
  4  6  1  0
  4  7  1  0
  7  8  1  0
  7  9  1  0
  7 10  1  0
 11 12  1  0
 11 22  1  0
 12 13  1  0
 12 14  1  0
 12 15  1  0
 15 16  1  0
 15 17  1  0
 15 18  1  0
 18 19  1  0
 19 20  1  0
 19 21  1  0
 19 22  1  0
 22 23  1  0
 22 24  1  0
M  END
$$$$
