
     RDKit          3D

 29 30  0  0  0  0  0  0  0  0999 V2000
  -24.4605   14.8958   31.2363 F   0  0  0  0  0  0  0  0  0  0  0  0
  -23.9189   13.6859   31.4441 C   0  0  0  0  0  0  0  0  0  0  0  0
  -23.2716   13.0321   30.3933 C   0  0  0  0  0  0  0  0  0  0  0  0
  -23.1548   13.6633   29.0288 C   0  0  0  0  0  0  0  0  0  0  0  0
  -22.1823   13.4203   28.5817 H   0  0  0  0  0  0  0  0  0  0  0  0
  -23.1411   14.7537   29.1603 H   0  0  0  0  0  0  0  0  0  0  0  0
  -24.2716   13.2671   28.0687 C   0  0  0  0  0  0  0  0  0  0  0  0
  -25.5409   14.0501   28.1810 C   0  0  0  0  0  0  0  0  0  0  0  0
  -25.8996   14.8690   27.3590 O   0  0  0  0  0  0  0  0  0  0  0  0
  -26.3021   13.8252   29.2801 N   0  0  0  0  0  0  0  0  0  0  0  0
  -25.9502   13.1751   29.9689 H   0  0  0  0  0  0  0  0  0  0  0  0
  -27.5646   14.4797   29.5124 C   0  0  0  0  0  0  0  0  0  0  0  0
  -27.3926   15.5515   29.6409 H   0  0  0  0  0  0  0  0  0  0  0  0
  -28.2232   14.3159   28.6559 H   0  0  0  0  0  0  0  0  0  0  0  0
  -28.0150   14.0618   30.4162 H   0  0  0  0  0  0  0  0  0  0  0  0
  -24.3863   11.8346   27.5388 C   0  0  0  0  0  0  0  0  0  0  0  0
  -25.3757   11.4503   27.3080 H   0  0  0  0  0  0  0  0  0  0  0  0
  -23.7024   11.0681   27.8821 H   0  0  0  0  0  0  0  0  0  0  0  0
  -23.8328   12.8968   26.6501 C   0  0  0  0  0  0  0  0  0  0  0  0
  -24.4419   13.2331   25.8182 H   0  0  0  0  0  0  0  0  0  0  0  0
  -22.7738   12.8589   26.4212 H   0  0  0  0  0  0  0  0  0  0  0  0
  -22.7311   11.7702   30.6429 C   0  0  0  0  0  0  0  0  0  0  0  0
  -22.2356   11.2403   29.8705 H   0  0  0  0  0  0  0  0  0  0  0  0
  -22.8410   11.1930   31.9086 C   0  0  0  0  0  0  0  0  0  0  0  0
  -22.4257   10.2322   32.0870 H   0  0  0  0  0  0  0  0  0  0  0  0
  -23.4906   11.8672   32.9420 C   0  0  0  0  0  0  0  0  0  0  0  0
  -23.5694   11.4209   33.9011 H   0  0  0  0  0  0  0  0  0  0  0  0
  -24.0361   13.1256   32.7101 C   0  0  0  0  0  0  0  0  0  0  0  0
  -24.5340   13.6531   33.4815 H   0  0  0  0  0  0  0  0  0  0  0  0
  1  2  1  0
  2  3  1  0
  2 28  2  0
  3  4  1  0
  3 22  2  0
  4  5  1  0
  4  6  1  0
  4  7  1  0
  7  8  1  0
  7 16  1  0
  7 19  1  0
  8  9  2  0
  8 10  1  0
 10 11  1  0
 10 12  1  0
 12 13  1  0
 12 14  1  0
 12 15  1  0
 16 17  1  0
 16 18  1  0
 16 19  1  0
 19 20  1  0
 19 21  1  0
 22 23  1  0
 22 24  1  0
 24 25  1  0
 24 26  2  0
 26 27  1  0
 26 28  1  0
 28 29  1  0
M  END
$$$$
