
     RDKit          3D

 27 28  0  0  0  0  0  0  0  0999 V2000
  -15.0322   19.8226   25.9361 O   0  0  0  0  0  0  0  0  0  0  0  0
  -14.7708   19.9689   24.5468 C   0  0  0  0  0  0  0  0  0  0  0  0
  -13.6851   19.9513   24.4076 H   0  0  0  0  0  0  0  0  0  0  0  0
  -15.1370   20.9321   24.1749 H   0  0  0  0  0  0  0  0  0  0  0  0
  -15.1918   19.1355   23.9750 H   0  0  0  0  0  0  0  0  0  0  0  0
  -16.3435   19.8356   26.3630 C   0  0  0  0  0  0  0  0  0  0  0  0
  -16.9143   18.5819   26.6250 C   0  0  0  0  0  0  0  0  0  0  0  0
  -18.2557   18.5484   27.0350 C   0  0  0  0  0  0  0  0  0  0  0  0
  -19.0340   17.3978   27.3058 N   0  0  0  0  0  0  0  0  0  0  0  0
  -19.9669   17.5803   27.6947 H   0  0  0  0  0  0  0  0  0  0  0  0
  -18.8296   16.0628   27.1526 C   0  0  0  0  0  0  0  0  0  0  0  0
  -19.7839   15.3980   27.4829 O   0  0  0  0  0  0  0  0  0  0  0  0
  -17.5935   15.4871   26.5546 C   0  0  0  0  0  0  0  0  0  0  0  0
  -17.6011   14.4111   26.7676 H   0  0  0  0  0  0  0  0  0  0  0  0
  -17.6281   15.6070   25.4661 H   0  0  0  0  0  0  0  0  0  0  0  0
  -16.3621   16.0982   27.1714 C   0  0  0  0  0  0  0  0  0  0  0  0
  -16.4871   16.2661   28.2486 H   0  0  0  0  0  0  0  0  0  0  0  0
  -15.5277   15.3971   27.0516 H   0  0  0  0  0  0  0  0  0  0  0  0
  -15.9968   17.3887   26.4631 C   0  0  0  0  0  0  0  0  0  0  0  0
  -15.8709   17.1984   25.3891 H   0  0  0  0  0  0  0  0  0  0  0  0
  -15.0065   17.6527   26.8569 H   0  0  0  0  0  0  0  0  0  0  0  0
  -18.9947   19.7252   27.1774 C   0  0  0  0  0  0  0  0  0  0  0  0
  -20.0067   19.6818   27.4881 H   0  0  0  0  0  0  0  0  0  0  0  0
  -18.4062   20.9553   26.9163 C   0  0  0  0  0  0  0  0  0  0  0  0
  -18.9679   21.8469   27.0277 H   0  0  0  0  0  0  0  0  0  0  0  0
  -17.0782   21.0162   26.5095 C   0  0  0  0  0  0  0  0  0  0  0  0
  -16.6369   21.9569   26.3130 H   0  0  0  0  0  0  0  0  0  0  0  0
  1  2  1  0
  1  6  1  0
  2  3  1  0
  2  4  1  0
  2  5  1  0
  6  7  1  0
  6 26  2  0
  7  8  2  0
  7 19  1  0
  8  9  1  0
  8 22  1  0
  9 10  1  0
  9 11  1  0
 11 12  2  0
 11 13  1  0
 13 14  1  0
 13 15  1  0
 13 16  1  0
 16 17  1  0
 16 18  1  0
 16 19  1  0
 19 20  1  0
 19 21  1  0
 22 23  1  0
 22 24  2  0
 24 25  1  0
 24 26  1  0
 26 27  1  0
M  END
$$$$
