
     RDKit          3D

 32 33  0  0  0  0  0  0  0  0999 V2000
  -17.8510   18.2441   27.1233 O   0  0  0  0  0  0  0  0  0  0  0  0
  -17.0326   17.8004   26.3315 C   0  0  0  0  0  0  0  0  0  0  0  0
  -15.9430   18.4680   25.8689 O   0  0  0  0  0  0  0  0  0  0  0  0
  -15.8027   19.7956   26.3800 C   0  0  0  0  0  0  0  0  0  0  0  0
  -15.7108   19.7786   27.4699 H   0  0  0  0  0  0  0  0  0  0  0  0
  -16.6521   20.4141   26.0715 H   0  0  0  0  0  0  0  0  0  0  0  0
  -14.8895   20.2249   25.9598 H   0  0  0  0  0  0  0  0  0  0  0  0
  -17.0840   16.5704   25.7507 N   0  0  0  0  0  0  0  0  0  0  0  0
  -16.3451   16.4134   25.0591 H   0  0  0  0  0  0  0  0  0  0  0  0
  -18.0027   15.5191   25.9607 C   0  0  0  0  0  0  0  0  0  0  0  0
  -18.9000   15.4899   27.0309 C   0  0  0  0  0  0  0  0  0  0  0  0
  -18.9170   16.2715   27.7432 H   0  0  0  0  0  0  0  0  0  0  0  0
  -19.7722   14.4147   27.1621 C   0  0  0  0  0  0  0  0  0  0  0  0
  -20.4519   14.3926   27.9756 H   0  0  0  0  0  0  0  0  0  0  0  0
  -19.7553   13.3674   26.2387 C   0  0  0  0  0  0  0  0  0  0  0  0
  -20.6922   12.1913   26.4001 C   0  0  0  0  0  0  0  0  0  0  0  0
  -20.1159   11.3073   26.7040 H   0  0  0  0  0  0  0  0  0  0  0  0
  -21.1210   11.9192   25.4265 H   0  0  0  0  0  0  0  0  0  0  0  0
  -21.8046   12.4423   27.3864 C   0  0  0  0  0  0  0  0  0  0  0  0
  -21.6140   12.2634   28.7515 C   0  0  0  0  0  0  0  0  0  0  0  0
  -20.6726   11.9621   29.1298 H   0  0  0  0  0  0  0  0  0  0  0  0
  -22.6691   12.4813   29.6317 C   0  0  0  0  0  0  0  0  0  0  0  0
  -22.5322   12.3458   30.6752 H   0  0  0  0  0  0  0  0  0  0  0  0
  -23.8722   12.8604   29.2064 N   0  0  0  0  0  0  0  0  0  0  0  0
  -24.0792   13.0355   27.9026 C   0  0  0  0  0  0  0  0  0  0  0  0
  -25.0479   13.3344   27.5883 H   0  0  0  0  0  0  0  0  0  0  0  0
  -23.0698   12.8347   26.9666 C   0  0  0  0  0  0  0  0  0  0  0  0
  -23.2725   12.9774   25.9364 H   0  0  0  0  0  0  0  0  0  0  0  0
  -18.8445   13.4024   25.1799 C   0  0  0  0  0  0  0  0  0  0  0  0
  -18.8180   12.6120   24.4746 H   0  0  0  0  0  0  0  0  0  0  0  0
  -17.9678   14.4729   25.0393 C   0  0  0  0  0  0  0  0  0  0  0  0
  -17.2825   14.4962   24.2320 H   0  0  0  0  0  0  0  0  0  0  0  0
  1  2  2  0
  2  3  1  0
  2  8  1  0
  3  4  1  0
  4  5  1  0
  4  6  1  0
  4  7  1  0
  8  9  1  0
  8 10  1  0
 10 11  1  0
 10 31  2  0
 11 12  1  0
 11 13  2  0
 13 14  1  0
 13 15  1  0
 15 16  1  0
 15 29  2  0
 16 17  1  0
 16 18  1  0
 16 19  1  0
 19 20  1  0
 19 27  2  0
 20 21  1  0
 20 22  2  0
 22 23  1  0
 22 24  1  0
 24 25  2  0
 25 26  1  0
 25 27  1  0
 27 28  1  0
 29 30  1  0
 29 31  1  0
 31 32  1  0
M  END
$$$$
