
     RDKit          3D

 20 20  0  0  0  0  0  0  0  0999 V2000
  -17.6371   11.4410   24.3327 O   0  0  0  0  0  0  0  0  0  0  0  0
  -18.1706   12.4542   24.8256 C   0  0  0  0  0  0  0  0  0  0  0  0
  -18.9386   12.3174   25.9980 N   0  0  0  0  0  0  0  0  0  0  0  0
  -19.0880   10.9980   26.6044 C   0  0  0  0  0  0  0  0  0  0  0  0
  -18.7048   11.0247   27.6289 H   0  0  0  0  0  0  0  0  0  0  0  0
  -18.5374   10.2255   26.0603 H   0  0  0  0  0  0  0  0  0  0  0  0
  -20.1469   10.7200   26.6054 H   0  0  0  0  0  0  0  0  0  0  0  0
  -19.5710   13.4379   26.5836 C   0  0  0  0  0  0  0  0  0  0  0  0
  -20.4069   13.2587   27.8203 C   0  0  0  0  0  0  0  0  0  0  0  0
  -21.2432   12.5787   27.6280 H   0  0  0  0  0  0  0  0  0  0  0  0
  -20.8347   14.2071   28.1628 H   0  0  0  0  0  0  0  0  0  0  0  0
  -19.8056   12.8611   28.6432 H   0  0  0  0  0  0  0  0  0  0  0  0
  -19.4037   14.6748   26.0252 C   0  0  0  0  0  0  0  0  0  0  0  0
  -19.8701   15.5195   26.4628 H   0  0  0  0  0  0  0  0  0  0  0  0
  -18.6208   14.8657   24.8548 C   0  0  0  0  0  0  0  0  0  0  0  0
  -18.5149   15.8352   24.4413 H   0  0  0  0  0  0  0  0  0  0  0  0
  -18.0251   13.7910   24.2642 C   0  0  0  0  0  0  0  0  0  0  0  0
  -17.2634   13.8957   23.1267 N   0  0  0  0  0  0  0  0  0  0  0  0
  -17.1116   14.7856   22.6743 H   0  0  0  0  0  0  0  0  0  0  0  0
  -16.8554   13.0406   22.7561 H   0  0  0  0  0  0  0  0  0  0  0  0
  1  2  2  0
  2  3  1  0
  2 17  1  0
  3  4  1  0
  3  8  1  0
  4  5  1  0
  4  6  1  0
  4  7  1  0
  8  9  1  0
  8 13  2  0
  9 10  1  0
  9 11  1  0
  9 12  1  0
 13 14  1  0
 13 15  1  0
 15 16  1  0
 15 17  2  0
 17 18  1  0
 18 19  1  0
 18 20  1  0
M  END
$$$$
