
     RDKit          3D

 17 18  0  0  0  0  0  0  0  0999 V2000
  -22.2922    9.7330   32.8813 Br  0  0  0  0  0  0  0  0  0  0  0  0
  -22.9019   10.9048   31.5284 C   0  0  0  0  0  0  0  0  0  0  0  0
  -22.9110   10.4870   30.1996 C   0  0  0  0  0  0  0  0  0  0  0  0
  -22.5802    9.5198   29.9257 H   0  0  0  0  0  0  0  0  0  0  0  0
  -23.3664   11.3841   29.2428 C   0  0  0  0  0  0  0  0  0  0  0  0
  -23.4629   11.1881   27.8731 N   0  0  0  0  0  0  0  0  0  0  0  0
  -23.2109   10.3441   27.3445 H   0  0  0  0  0  0  0  0  0  0  0  0
  -23.9530   12.2893   27.2565 C   0  0  0  0  0  0  0  0  0  0  0  0
  -24.1090   12.3108   26.0581 O   0  0  0  0  0  0  0  0  0  0  0  0
  -24.2280   13.3652   28.3044 C   0  0  0  0  0  0  0  0  0  0  0  0
  -23.6078   14.2427   28.1080 H   0  0  0  0  0  0  0  0  0  0  0  0
  -25.2935   13.6063   28.3174 H   0  0  0  0  0  0  0  0  0  0  0  0
  -23.8058   12.6552   29.5533 C   0  0  0  0  0  0  0  0  0  0  0  0
  -23.7987   13.0720   30.8800 C   0  0  0  0  0  0  0  0  0  0  0  0
  -24.1330   14.0444   31.1413 H   0  0  0  0  0  0  0  0  0  0  0  0
  -23.3452   12.1926   31.8669 C   0  0  0  0  0  0  0  0  0  0  0  0
  -23.3351   12.4987   32.8810 H   0  0  0  0  0  0  0  0  0  0  0  0
  1  2  1  0
  2  3  1  0
  2 16  2  0
  3  4  1  0
  3  5  2  0
  5  6  1  0
  5 13  1  0
  6  7  1  0
  6  8  1  0
  8  9  2  0
  8 10  1  0
 10 11  1  0
 10 12  1  0
 10 13  1  0
 13 14  2  0
 14 15  1  0
 14 16  1  0
 16 17  1  0
M  END
$$$$
