
     RDKit          3D

 29 30  0  0  0  0  0  0  0  0999 V2000
  -19.3677   12.8000   25.7541 C   0  0  0  0  0  0  0  0  0  0  0  0
  -20.0759   12.7716   24.9201 H   0  0  0  0  0  0  0  0  0  0  0  0
  -18.3615   12.6132   25.3624 H   0  0  0  0  0  0  0  0  0  0  0  0
  -19.3613   13.8153   26.1660 H   0  0  0  0  0  0  0  0  0  0  0  0
  -19.7232   11.7753   26.8266 C   0  0  0  0  0  0  0  0  0  0  0  0
  -18.7485   11.8483   27.8677 O   0  0  0  0  0  0  0  0  0  0  0  0
  -18.8098   12.7364   28.2591 H   0  0  0  0  0  0  0  0  0  0  0  0
  -21.1013   11.9862   27.3662 C   0  0  0  0  0  0  0  0  0  0  0  0
  -22.1283   11.0511   27.4205 C   0  0  0  0  0  0  0  0  0  0  0  0
  -22.0654   10.0510   27.0702 H   0  0  0  0  0  0  0  0  0  0  0  0
  -23.2025   11.5569   27.9638 N   0  0  0  0  0  0  0  0  0  0  0  0
  -22.8737   12.8450   28.2648 N   0  0  0  0  0  0  0  0  0  0  0  0
  -23.8274   13.7321   28.8848 C   0  0  0  0  0  0  0  0  0  0  0  0
  -23.3060   14.6776   29.0913 H   0  0  0  0  0  0  0  0  0  0  0  0
  -25.0654   14.0255   28.0388 C   0  0  0  0  0  0  0  0  0  0  0  0
  -24.8534   14.7174   27.2172 H   0  0  0  0  0  0  0  0  0  0  0  0
  -25.4777   13.1098   27.5985 H   0  0  0  0  0  0  0  0  0  0  0  0
  -26.0647   14.6068   29.0346 C   0  0  0  0  0  0  0  0  0  0  0  0
  -26.0211   15.7022   29.0239 H   0  0  0  0  0  0  0  0  0  0  0  0
  -27.0903   14.3184   28.7814 H   0  0  0  0  0  0  0  0  0  0  0  0
  -25.6510   14.0866   30.4115 C   0  0  0  0  0  0  0  0  0  0  0  0
  -26.4606   13.5311   30.8972 H   0  0  0  0  0  0  0  0  0  0  0  0
  -25.3953   14.9301   31.0644 H   0  0  0  0  0  0  0  0  0  0  0  0
  -24.4285   13.2037   30.1855 C   0  0  0  0  0  0  0  0  0  0  0  0
  -24.7428   12.1571   30.0853 H   0  0  0  0  0  0  0  0  0  0  0  0
  -23.7232   13.2548   31.0220 H   0  0  0  0  0  0  0  0  0  0  0  0
  -21.5988   13.1216   27.9094 C   0  0  0  0  0  0  0  0  0  0  0  0
  -21.1618   14.0724   28.0711 H   0  0  0  0  0  0  0  0  0  0  0  0
  -19.6576   10.7670   26.3983 H   0  0  0  0  0  0  0  0  0  0  0  0
  1  2  1  0
  1  3  1  0
  1  4  1  0
  1  5  1  0
  5  6  1  0
  5  8  1  0
  5 29  1  0
  6  7  1  0
  8  9  1  0
  8 27  2  0
  9 10  1  0
  9 11  2  0
 11 12  1  0
 12 13  1  0
 12 27  1  0
 13 14  1  0
 13 15  1  0
 13 24  1  0
 15 16  1  0
 15 17  1  0
 15 18  1  0
 18 19  1  0
 18 20  1  0
 18 21  1  0
 21 22  1  0
 21 23  1  0
 21 24  1  0
 24 25  1  0
 24 26  1  0
 27 28  1  0
M  END
$$$$
