
     RDKit          3D

 23 24  0  0  0  0  0  0  0  0999 V2000
  -24.8792   16.9890   29.1142 C   0  0  0  0  0  0  0  0  0  0  0  0
  -24.3941   16.7940   30.0729 H   0  0  0  0  0  0  0  0  0  0  0  0
  -25.8515   17.4566   29.2890 H   0  0  0  0  0  0  0  0  0  0  0  0
  -24.2512   17.6392   28.4990 H   0  0  0  0  0  0  0  0  0  0  0  0
  -25.0751   15.7535   28.4071 N   0  0  0  0  0  0  0  0  0  0  0  0
  -25.9745   15.6880   27.4150 N   0  0  0  0  0  0  0  0  0  0  0  0
  -25.9449   14.4684   26.9290 N   0  0  0  0  0  0  0  0  0  0  0  0
  -25.0230   13.7815   27.6361 C   0  0  0  0  0  0  0  0  0  0  0  0
  -24.4787   14.5740   28.5730 C   0  0  0  0  0  0  0  0  0  0  0  0
  -23.4445   14.1879   29.5685 C   0  0  0  0  0  0  0  0  0  0  0  0
  -22.6998   14.9829   29.6784 H   0  0  0  0  0  0  0  0  0  0  0  0
  -23.9355   14.0759   30.5436 H   0  0  0  0  0  0  0  0  0  0  0  0
  -22.8088   12.8304   29.1786 C   0  0  0  0  0  0  0  0  0  0  0  0
  -21.6015   13.0407   28.2595 C   0  0  0  0  0  0  0  0  0  0  0  0
  -21.8194   13.5567   27.1403 O   0  0  0  0  0  0  0  0  0  0  0  0
  -20.4733   12.7230   28.6953 O   0  0  0  0  0  0  0  0  0  0  0  0
  -23.8561   11.8303   28.6245 C   0  0  0  0  0  0  0  0  0  0  0  0
  -23.3847   10.8778   28.3563 H   0  0  0  0  0  0  0  0  0  0  0  0
  -24.5689   11.6055   29.4303 H   0  0  0  0  0  0  0  0  0  0  0  0
  -24.6429   12.3712   27.4091 C   0  0  0  0  0  0  0  0  0  0  0  0
  -25.5346   11.7553   27.2466 H   0  0  0  0  0  0  0  0  0  0  0  0
  -24.0310   12.3054   26.5029 H   0  0  0  0  0  0  0  0  0  0  0  0
  -22.3825   12.3908   30.0915 H   0  0  0  0  0  0  0  0  0  0  0  0
  1  2  1  0
  1  3  1  0
  1  4  1  0
  1  5  1  0
  5  6  1  0
  5  9  1  0
  6  7  2  0
  7  8  1  0
  8  9  2  0
  8 20  1  0
  9 10  1  0
 10 11  1  0
 10 12  1  0
 10 13  1  0
 13 14  1  0
 13 17  1  0
 13 23  1  0
 14 15  1  0
 14 16  2  0
 17 18  1  0
 17 19  1  0
 17 20  1  0
 20 21  1  0
 20 22  1  0
M  END
$$$$
