
     RDKit          3D

 24 24  0  0  0  0  0  0  0  0999 V2000
  -14.1948   17.7191   27.0751 O   0  0  0  0  0  0  0  0  0  0  0  0
  -13.6717   16.9081   26.9448 H   0  0  0  0  0  0  0  0  0  0  0  0
  -15.4682   17.4945   26.4815 C   0  0  0  0  0  0  0  0  0  0  0  0
  -15.9848   18.4548   26.3900 H   0  0  0  0  0  0  0  0  0  0  0  0
  -15.3001   17.0902   25.4786 H   0  0  0  0  0  0  0  0  0  0  0  0
  -16.2890   16.4938   27.3054 C   0  0  0  0  0  0  0  0  0  0  0  0
  -16.2260   16.7215   28.3760 H   0  0  0  0  0  0  0  0  0  0  0  0
  -15.8353   15.5010   27.1937 H   0  0  0  0  0  0  0  0  0  0  0  0
  -17.6940   16.4200   26.8470 N   0  0  0  0  0  0  0  0  0  0  0  0
  -18.5037   17.6063   27.1238 C   0  0  0  0  0  0  0  0  0  0  0  0
  -17.9770   18.3175   27.7713 H   0  0  0  0  0  0  0  0  0  0  0  0
  -19.4298   17.3325   27.6409 H   0  0  0  0  0  0  0  0  0  0  0  0
  -18.7465   18.1309   26.1934 H   0  0  0  0  0  0  0  0  0  0  0  0
  -18.1544   15.2860   26.2232 C   0  0  0  0  0  0  0  0  0  0  0  0
  -17.6476   15.0727   24.9999 N   0  0  0  0  0  0  0  0  0  0  0  0
  -16.9889   15.7810   24.6577 H   0  0  0  0  0  0  0  0  0  0  0  0
  -17.9727   13.9874   24.2359 C   0  0  0  0  0  0  0  0  0  0  0  0
  -17.5003   13.9335   23.2859 H   0  0  0  0  0  0  0  0  0  0  0  0
  -18.8620   13.0605   24.7273 C   0  0  0  0  0  0  0  0  0  0  0  0
  -19.1283   12.2098   24.1523 H   0  0  0  0  0  0  0  0  0  0  0  0
  -19.4292   13.2431   26.0008 C   0  0  0  0  0  0  0  0  0  0  0  0
  -20.1251   12.5343   26.3812 H   0  0  0  0  0  0  0  0  0  0  0  0
  -19.0834   14.3468   26.7436 C   0  0  0  0  0  0  0  0  0  0  0  0
  -19.5172   14.5042   27.6948 H   0  0  0  0  0  0  0  0  0  0  0  0
  1  2  1  0
  1  3  1  0
  3  4  1  0
  3  5  1  0
  3  6  1  0
  6  7  1  0
  6  8  1  0
  6  9  1  0
  9 10  1  0
  9 14  1  0
 10 11  1  0
 10 12  1  0
 10 13  1  0
 14 15  1  0
 14 23  2  0
 15 16  1  0
 15 17  2  0
 17 18  1  0
 17 19  1  0
 19 20  1  0
 19 21  2  0
 21 22  1  0
 21 23  1  0
 23 24  1  0
M  END
$$$$
