
     RDKit          3D

 31 32  0  0  0  0  0  0  0  0999 V2000
  -23.2911   12.2320   26.8834 O   0  0  0  0  0  0  0  0  0  0  0  0
  -23.1985   13.1319   27.7081 C   0  0  0  0  0  0  0  0  0  0  0  0
  -22.0186   13.2274   28.3835 N   0  0  0  0  0  0  0  0  0  0  0  0
  -21.8460   14.0170   29.0169 H   0  0  0  0  0  0  0  0  0  0  0  0
  -20.9549   12.2578   28.2162 C   0  0  0  0  0  0  0  0  0  0  0  0
  -21.3963   11.3112   27.8833 H   0  0  0  0  0  0  0  0  0  0  0  0
  -20.4807   12.0851   29.1889 H   0  0  0  0  0  0  0  0  0  0  0  0
  -19.9786   12.7715   27.2191 C   0  0  0  0  0  0  0  0  0  0  0  0
  -19.6265   14.0620   27.0097 C   0  0  0  0  0  0  0  0  0  0  0  0
  -19.9325   14.9603   27.4770 H   0  0  0  0  0  0  0  0  0  0  0  0
  -18.7237   14.0411   26.0038 N   0  0  0  0  0  0  0  0  0  0  0  0
  -18.0371   15.1617   25.3965 C   0  0  0  0  0  0  0  0  0  0  0  0
  -17.4180   14.7718   24.5810 H   0  0  0  0  0  0  0  0  0  0  0  0
  -18.7970   15.8165   24.9572 H   0  0  0  0  0  0  0  0  0  0  0  0
  -17.1805   15.9204   26.3939 C   0  0  0  0  0  0  0  0  0  0  0  0
  -16.4225   15.2667   26.8389 H   0  0  0  0  0  0  0  0  0  0  0  0
  -17.7885   16.3275   27.2085 H   0  0  0  0  0  0  0  0  0  0  0  0
  -16.6691   16.7524   25.9005 H   0  0  0  0  0  0  0  0  0  0  0  0
  -18.4887   12.7776   25.5681 N   0  0  0  0  0  0  0  0  0  0  0  0
  -19.2522   12.0183   26.3050 C   0  0  0  0  0  0  0  0  0  0  0  0
  -19.2906   10.9631   26.2035 H   0  0  0  0  0  0  0  0  0  0  0  0
  -24.2738   14.1129   27.9502 C   0  0  0  0  0  0  0  0  0  0  0  0
  -25.4284   14.0332   27.1613 C   0  0  0  0  0  0  0  0  0  0  0  0
  -25.5036   13.2821   26.4142 H   0  0  0  0  0  0  0  0  0  0  0  0
  -26.4535   14.8753   27.3058 N   0  0  0  0  0  0  0  0  0  0  0  0
  -26.3984   15.8298   28.2325 C   0  0  0  0  0  0  0  0  0  0  0  0
  -27.2291   16.4839   28.3232 H   0  0  0  0  0  0  0  0  0  0  0  0
  -25.2922   15.9747   29.0655 C   0  0  0  0  0  0  0  0  0  0  0  0
  -25.2794   16.7397   29.7971 H   0  0  0  0  0  0  0  0  0  0  0  0
  -24.2132   15.1103   28.9316 C   0  0  0  0  0  0  0  0  0  0  0  0
  -23.3728   15.2077   29.5683 H   0  0  0  0  0  0  0  0  0  0  0  0
  1  2  2  0
  2  3  1  0
  2 22  1  0
  3  4  1  0
  3  5  1  0
  5  6  1  0
  5  7  1  0
  5  8  1  0
  8  9  2  0
  8 20  1  0
  9 10  1  0
  9 11  1  0
 11 12  1  0
 11 19  1  0
 12 13  1  0
 12 14  1  0
 12 15  1  0
 15 16  1  0
 15 17  1  0
 15 18  1  0
 19 20  2  0
 20 21  1  0
 22 23  1  0
 22 30  2  0
 23 24  1  0
 23 25  2  0
 25 26  1  0
 26 27  1  0
 26 28  2  0
 28 29  1  0
 28 30  1  0
 30 31  1  0
M  END
$$$$
