
     RDKit          3D

 23 23  0  0  0  0  0  0  0  0999 V2000
  -17.8770   14.5092   25.4423 Cl  0  0  0  0  0  0  0  0  0  0  0  0
  -19.3324   13.8959   26.1283 C   0  0  0  0  0  0  0  0  0  0  0  0
  -20.0450   12.8103   25.5943 C   0  0  0  0  0  0  0  0  0  0  0  0
  -19.6670   12.0415   24.3899 C   0  0  0  0  0  0  0  0  0  0  0  0
  -19.8838   10.8669   24.1319 O   0  0  0  0  0  0  0  0  0  0  0  0
  -18.9825   12.6892   23.4139 N   0  0  0  0  0  0  0  0  0  0  0  0
  -18.7099   12.1612   22.5761 H   0  0  0  0  0  0  0  0  0  0  0  0
  -18.7424   13.6816   23.5332 H   0  0  0  0  0  0  0  0  0  0  0  0
  -21.1805   12.4144   26.2230 N   0  0  0  0  0  0  0  0  0  0  0  0
  -21.6047   13.0386   27.3110 C   0  0  0  0  0  0  0  0  0  0  0  0
  -22.8726   12.5588   27.9708 C   0  0  0  0  0  0  0  0  0  0  0  0
  -22.9497   11.4745   27.8201 H   0  0  0  0  0  0  0  0  0  0  0  0
  -22.8376   12.8199   29.4755 C   0  0  0  0  0  0  0  0  0  0  0  0
  -22.7857   13.8917   29.7009 H   0  0  0  0  0  0  0  0  0  0  0  0
  -21.9650   12.3424   29.9360 H   0  0  0  0  0  0  0  0  0  0  0  0
  -23.7346   12.4188   29.9592 H   0  0  0  0  0  0  0  0  0  0  0  0
  -24.0994   13.2065   27.3287 C   0  0  0  0  0  0  0  0  0  0  0  0
  -24.1015   14.2939   27.4642 H   0  0  0  0  0  0  0  0  0  0  0  0
  -25.0211   12.8120   27.7706 H   0  0  0  0  0  0  0  0  0  0  0  0
  -24.1299   13.0062   26.2524 H   0  0  0  0  0  0  0  0  0  0  0  0
  -20.9429   14.0742   27.8356 N   0  0  0  0  0  0  0  0  0  0  0  0
  -19.8307   14.5081   27.2723 C   0  0  0  0  0  0  0  0  0  0  0  0
  -19.3206   15.3319   27.7046 H   0  0  0  0  0  0  0  0  0  0  0  0
  1  2  1  0
  2  3  1  0
  2 22  2  0
  3  4  1  0
  3  9  2  0
  4  5  2  0
  4  6  1  0
  6  7  1  0
  6  8  1  0
  9 10  1  0
 10 11  1  0
 10 21  2  0
 11 12  1  0
 11 13  1  0
 11 17  1  0
 13 14  1  0
 13 15  1  0
 13 16  1  0
 17 18  1  0
 17 19  1  0
 17 20  1  0
 21 22  1  0
 22 23  1  0
M  END
$$$$
