
     RDKit          3D

 30 31  0  0  0  0  0  0  0  0999 V2000
  -14.6513   19.3119   27.5055 F   0  0  0  0  0  0  0  0  0  0  0  0
  -15.4684   18.2917   27.2065 C   0  0  0  0  0  0  0  0  0  0  0  0
  -14.9587   17.2073   26.5025 C   0  0  0  0  0  0  0  0  0  0  0  0
  -13.9422   17.1944   26.2070 H   0  0  0  0  0  0  0  0  0  0  0  0
  -15.8073   16.1497   26.1915 C   0  0  0  0  0  0  0  0  0  0  0  0
  -15.4494   15.3213   25.6398 H   0  0  0  0  0  0  0  0  0  0  0  0
  -17.1499   16.1891   26.5924 C   0  0  0  0  0  0  0  0  0  0  0  0
  -17.9983   15.1344   26.2810 N   0  0  0  0  0  0  0  0  0  0  0  0
  -18.7499   15.0831   25.0196 C   0  0  0  0  0  0  0  0  0  0  0  0
  -19.8191   15.1920   25.2383 H   0  0  0  0  0  0  0  0  0  0  0  0
  -18.4677   15.8860   24.3296 H   0  0  0  0  0  0  0  0  0  0  0  0
  -18.4876   13.7423   24.3162 C   0  0  0  0  0  0  0  0  0  0  0  0
  -17.4399   13.6888   23.9964 H   0  0  0  0  0  0  0  0  0  0  0  0
  -19.1046   13.6728   23.4144 H   0  0  0  0  0  0  0  0  0  0  0  0
  -18.7103   12.5974   25.2089 N   0  0  0  0  0  0  0  0  0  0  0  0
  -19.5685   11.6078   24.8139 C   0  0  0  0  0  0  0  0  0  0  0  0
  -20.3022   11.6899   23.8434 O   0  0  0  0  0  0  0  0  0  0  0  0
  -19.5660   10.4936   25.5498 N   0  0  0  0  0  0  0  0  0  0  0  0
  -20.4308    9.9455   25.4915 H   0  0  0  0  0  0  0  0  0  0  0  0
  -18.6738    9.9986   25.6131 H   0  0  0  0  0  0  0  0  0  0  0  0
  -17.9665   12.6726   26.4792 C   0  0  0  0  0  0  0  0  0  0  0  0
  -18.2380   11.8611   27.1574 H   0  0  0  0  0  0  0  0  0  0  0  0
  -16.9035   12.5709   26.2329 H   0  0  0  0  0  0  0  0  0  0  0  0
  -18.2248   14.0082   27.1964 C   0  0  0  0  0  0  0  0  0  0  0  0
  -17.6182   14.0628   28.1066 H   0  0  0  0  0  0  0  0  0  0  0  0
  -19.2718   14.0441   27.5237 H   0  0  0  0  0  0  0  0  0  0  0  0
  -17.6463   17.2967   27.2995 C   0  0  0  0  0  0  0  0  0  0  0  0
  -18.6553   17.3303   27.6111 H   0  0  0  0  0  0  0  0  0  0  0  0
  -16.7970   18.3544   27.6094 C   0  0  0  0  0  0  0  0  0  0  0  0
  -17.1487   19.1970   28.1451 H   0  0  0  0  0  0  0  0  0  0  0  0
  1  2  1  0
  2  3  1  0
  2 29  2  0
  3  4  1  0
  3  5  2  0
  5  6  1  0
  5  7  1  0
  7  8  1  0
  7 27  2  0
  8  9  1  0
  8 24  1  0
  9 10  1  0
  9 11  1  0
  9 12  1  0
 12 13  1  0
 12 14  1  0
 12 15  1  0
 15 16  1  0
 15 21  1  0
 16 17  2  0
 16 18  1  0
 18 19  1  0
 18 20  1  0
 21 22  1  0
 21 23  1  0
 21 24  1  0
 24 25  1  0
 24 26  1  0
 27 28  1  0
 27 29  1  0
 29 30  1  0
M  END
$$$$
