
     RDKit          3D

 35 37  0  0  0  0  0  0  0  0999 V2000
  -14.7219   19.4878   25.5157 F   0  0  0  0  0  0  0  0  0  0  0  0
  -15.6157   18.4918   25.5946 C   0  0  0  0  0  0  0  0  0  0  0  0
  -16.9674   18.8064   25.6591 C   0  0  0  0  0  0  0  0  0  0  0  0
  -17.2782   19.8185   25.6449 H   0  0  0  0  0  0  0  0  0  0  0  0
  -17.8966   17.7736   25.7423 C   0  0  0  0  0  0  0  0  0  0  0  0
  -18.9236   18.0090   25.7911 H   0  0  0  0  0  0  0  0  0  0  0  0
  -17.4604   16.4368   25.7707 C   0  0  0  0  0  0  0  0  0  0  0  0
  -18.3823   15.4024   25.8715 N   0  0  0  0  0  0  0  0  0  0  0  0
  -19.3677   15.3215   26.9601 C   0  0  0  0  0  0  0  0  0  0  0  0
  -19.2393   16.1001   27.7186 H   0  0  0  0  0  0  0  0  0  0  0  0
  -20.3638   15.4744   26.5264 H   0  0  0  0  0  0  0  0  0  0  0  0
  -19.3155   13.9377   27.6269 C   0  0  0  0  0  0  0  0  0  0  0  0
  -20.1030   13.8617   28.3803 H   0  0  0  0  0  0  0  0  0  0  0  0
  -18.3562   13.8051   28.1406 H   0  0  0  0  0  0  0  0  0  0  0  0
  -19.4161   12.8653   26.6277 N   0  0  0  0  0  0  0  0  0  0  0  0
  -20.3378   11.8455   26.6593 C   0  0  0  0  0  0  0  0  0  0  0  0
  -20.3133   11.0065   25.7777 O   0  0  0  0  0  0  0  0  0  0  0  0
  -21.3277   11.7887   27.7582 C   0  0  0  0  0  0  0  0  0  0  0  0
  -20.8999   11.9333   28.7456 H   0  0  0  0  0  0  0  0  0  0  0  0
  -22.4799   10.8111   27.6906 C   0  0  0  0  0  0  0  0  0  0  0  0
  -22.5681   10.1803   26.8131 H   0  0  0  0  0  0  0  0  0  0  0  0
  -22.7935   10.3349   28.6115 H   0  0  0  0  0  0  0  0  0  0  0  0
  -22.7392   12.2780   27.5307 C   0  0  0  0  0  0  0  0  0  0  0  0
  -23.0128   12.6338   26.5433 H   0  0  0  0  0  0  0  0  0  0  0  0
  -23.2326   12.7978   28.3432 H   0  0  0  0  0  0  0  0  0  0  0  0
  -18.4222   12.9561   25.5505 C   0  0  0  0  0  0  0  0  0  0  0  0
  -17.4415   12.7917   26.0115 H   0  0  0  0  0  0  0  0  0  0  0  0
  -18.5679   12.1711   24.8017 H   0  0  0  0  0  0  0  0  0  0  0  0
  -18.4545   14.3325   24.8634 C   0  0  0  0  0  0  0  0  0  0  0  0
  -19.3850   14.4455   24.2950 H   0  0  0  0  0  0  0  0  0  0  0  0
  -17.6216   14.3695   24.1525 H   0  0  0  0  0  0  0  0  0  0  0  0
  -16.0889   16.1474   25.6824 C   0  0  0  0  0  0  0  0  0  0  0  0
  -15.7582   15.1430   25.6560 H   0  0  0  0  0  0  0  0  0  0  0  0
  -15.1603   17.1808   25.6021 C   0  0  0  0  0  0  0  0  0  0  0  0
  -14.1238   16.9773   25.5382 H   0  0  0  0  0  0  0  0  0  0  0  0
  1  2  1  0
  2  3  1  0
  2 34  2  0
  3  4  1  0
  3  5  2  0
  5  6  1  0
  5  7  1  0
  7  8  1  0
  7 32  2  0
  8  9  1  0
  8 29  1  0
  9 10  1  0
  9 11  1  0
  9 12  1  0
 12 13  1  0
 12 14  1  0
 12 15  1  0
 15 16  1  0
 15 26  1  0
 16 17  2  0
 16 18  1  0
 18 19  1  0
 18 20  1  0
 18 23  1  0
 20 21  1  0
 20 22  1  0
 20 23  1  0
 23 24  1  0
 23 25  1  0
 26 27  1  0
 26 28  1  0
 26 29  1  0
 29 30  1  0
 29 31  1  0
 32 33  1  0
 32 34  1  0
 34 35  1  0
M  END
$$$$
