
     RDKit          3D

 20 20  0  0  0  0  0  0  0  0999 V2000
  -19.6768   10.7219   26.2000 O   0  0  0  0  0  0  0  0  0  0  0  0
  -19.1503   11.7396   25.7088 C   0  0  0  0  0  0  0  0  0  0  0  0
  -19.1583   12.9362   26.4511 N   0  0  0  0  0  0  0  0  0  0  0  0
  -19.7792   12.9535   27.7721 C   0  0  0  0  0  0  0  0  0  0  0  0
  -19.0358   13.2507   28.5179 H   0  0  0  0  0  0  0  0  0  0  0  0
  -20.1705   11.9738   28.0605 H   0  0  0  0  0  0  0  0  0  0  0  0
  -20.6136   13.6622   27.7687 H   0  0  0  0  0  0  0  0  0  0  0  0
  -18.5835   14.1167   25.9271 C   0  0  0  0  0  0  0  0  0  0  0  0
  -18.6297   15.3868   26.7301 C   0  0  0  0  0  0  0  0  0  0  0  0
  -19.6651   15.6848   26.9251 H   0  0  0  0  0  0  0  0  0  0  0  0
  -18.1486   16.2183   26.2037 H   0  0  0  0  0  0  0  0  0  0  0  0
  -18.1078   15.2646   27.6838 H   0  0  0  0  0  0  0  0  0  0  0  0
  -17.9796   14.0857   24.7007 C   0  0  0  0  0  0  0  0  0  0  0  0
  -17.5415   14.9654   24.3050 H   0  0  0  0  0  0  0  0  0  0  0  0
  -17.9277   12.8967   23.9241 C   0  0  0  0  0  0  0  0  0  0  0  0
  -17.4588   12.9051   22.9743 H   0  0  0  0  0  0  0  0  0  0  0  0
  -18.4997   11.7565   24.4050 C   0  0  0  0  0  0  0  0  0  0  0  0
  -18.4988   10.5736   23.7080 N   0  0  0  0  0  0  0  0  0  0  0  0
  -18.0687   10.4990   22.7974 H   0  0  0  0  0  0  0  0  0  0  0  0
  -18.9480    9.7723   24.1451 H   0  0  0  0  0  0  0  0  0  0  0  0
  1  2  2  0
  2  3  1  0
  2 17  1  0
  3  4  1  0
  3  8  1  0
  4  5  1  0
  4  6  1  0
  4  7  1  0
  8  9  1  0
  8 13  2  0
  9 10  1  0
  9 11  1  0
  9 12  1  0
 13 14  1  0
 13 15  1  0
 15 16  1  0
 15 17  2  0
 17 18  1  0
 18 19  1  0
 18 20  1  0
M  END
$$$$
