
     RDKit          3D

 29 30  0  0  0  0  0  0  0  0999 V2000
  -23.9793   10.6339   30.8679 F   0  0  0  0  0  0  0  0  0  0  0  0
  -23.2768   11.2563   31.8268 C   0  0  0  0  0  0  0  0  0  0  0  0
  -23.6597   12.5342   32.2404 C   0  0  0  0  0  0  0  0  0  0  0  0
  -24.8575   13.2275   31.6416 C   0  0  0  0  0  0  0  0  0  0  0  0
  -25.3053   13.9101   32.3752 H   0  0  0  0  0  0  0  0  0  0  0  0
  -25.6289   12.4685   31.4536 H   0  0  0  0  0  0  0  0  0  0  0  0
  -24.5501   13.9891   30.3565 C   0  0  0  0  0  0  0  0  0  0  0  0
  -24.2173   13.1524   29.1624 C   0  0  0  0  0  0  0  0  0  0  0  0
  -25.0184   12.8742   28.2931 O   0  0  0  0  0  0  0  0  0  0  0  0
  -22.9498   12.6778   29.0833 N   0  0  0  0  0  0  0  0  0  0  0  0
  -22.3230   12.8855   29.8479 H   0  0  0  0  0  0  0  0  0  0  0  0
  -22.4722   11.8848   27.9790 C   0  0  0  0  0  0  0  0  0  0  0  0
  -23.0113   10.9340   27.9629 H   0  0  0  0  0  0  0  0  0  0  0  0
  -22.6484   12.4201   27.0426 H   0  0  0  0  0  0  0  0  0  0  0  0
  -21.4023   11.7064   28.1125 H   0  0  0  0  0  0  0  0  0  0  0  0
  -23.9608   15.4023   30.3978 C   0  0  0  0  0  0  0  0  0  0  0  0
  -23.3086   15.7105   29.5856 H   0  0  0  0  0  0  0  0  0  0  0  0
  -23.7049   15.8607   31.3451 H   0  0  0  0  0  0  0  0  0  0  0  0
  -25.4100   15.2272   30.0920 C   0  0  0  0  0  0  0  0  0  0  0  0
  -25.7427   15.4161   29.0771 H   0  0  0  0  0  0  0  0  0  0  0  0
  -26.1239   15.5412   30.8450 H   0  0  0  0  0  0  0  0  0  0  0  0
  -22.8985   13.1557   33.2310 C   0  0  0  0  0  0  0  0  0  0  0  0
  -23.1544   14.1269   33.5691 H   0  0  0  0  0  0  0  0  0  0  0  0
  -21.7926   12.5074   33.7823 C   0  0  0  0  0  0  0  0  0  0  0  0
  -21.2208   12.9901   34.5356 H   0  0  0  0  0  0  0  0  0  0  0  0
  -21.4320   11.2305   33.3535 C   0  0  0  0  0  0  0  0  0  0  0  0
  -20.5899   10.7450   33.7781 H   0  0  0  0  0  0  0  0  0  0  0  0
  -22.1793   10.5969   32.3661 C   0  0  0  0  0  0  0  0  0  0  0  0
  -21.9210    9.6277   32.0263 H   0  0  0  0  0  0  0  0  0  0  0  0
  1  2  1  0
  2  3  1  0
  2 28  2  0
  3  4  1  0
  3 22  2  0
  4  5  1  0
  4  6  1  0
  4  7  1  0
  7  8  1  0
  7 16  1  0
  7 19  1  0
  8  9  2  0
  8 10  1  0
 10 11  1  0
 10 12  1  0
 12 13  1  0
 12 14  1  0
 12 15  1  0
 16 17  1  0
 16 18  1  0
 16 19  1  0
 19 20  1  0
 19 21  1  0
 22 23  1  0
 22 24  1  0
 24 25  1  0
 24 26  2  0
 26 27  1  0
 26 28  1  0
 28 29  1  0
M  END
$$$$
