
     RDKit          3D

 23 23  0  0  0  0  0  0  0  0999 V2000
  -19.0325   11.9865   27.7488 S   0  0  0  0  0  0  0  0  0  0  0  0
  -19.0757   10.8602   26.8300 O   0  0  0  0  0  0  0  0  0  0  0  0
  -18.4772   11.8347   29.0801 O   0  0  0  0  0  0  0  0  0  0  0  0
  -20.6839   12.6145   27.9048 C   0  0  0  0  0  0  0  0  0  0  0  0
  -21.0760   12.8375   26.9104 H   0  0  0  0  0  0  0  0  0  0  0  0
  -20.6708   13.5115   28.5268 H   0  0  0  0  0  0  0  0  0  0  0  0
  -21.2955   11.8451   28.3799 H   0  0  0  0  0  0  0  0  0  0  0  0
  -18.1678   13.3133   26.9563 C   0  0  0  0  0  0  0  0  0  0  0  0
  -18.0456   13.4165   25.5597 C   0  0  0  0  0  0  0  0  0  0  0  0
  -18.6073   12.4368   24.7448 N   0  0  0  0  0  0  0  0  0  0  0  0
  -18.6710   11.4856   25.1357 H   0  0  0  0  0  0  0  0  0  0  0  0
  -19.0764   12.6350   23.3948 C   0  0  0  0  0  0  0  0  0  0  0  0
  -19.8567   13.4025   23.3560 H   0  0  0  0  0  0  0  0  0  0  0  0
  -19.5079   11.7024   23.0177 H   0  0  0  0  0  0  0  0  0  0  0  0
  -18.2551   12.9143   22.7277 H   0  0  0  0  0  0  0  0  0  0  0  0
  -17.3866   14.5142   24.9904 C   0  0  0  0  0  0  0  0  0  0  0  0
  -17.3157   14.6142   23.9400 H   0  0  0  0  0  0  0  0  0  0  0  0
  -16.8188   15.4842   25.8055 C   0  0  0  0  0  0  0  0  0  0  0  0
  -16.3131   16.3097   25.3739 H   0  0  0  0  0  0  0  0  0  0  0  0
  -16.9089   15.3742   27.1892 C   0  0  0  0  0  0  0  0  0  0  0  0
  -16.4676   16.1127   27.8103 H   0  0  0  0  0  0  0  0  0  0  0  0
  -17.5821   14.2968   27.7573 C   0  0  0  0  0  0  0  0  0  0  0  0
  -17.6515   14.2217   28.8130 H   0  0  0  0  0  0  0  0  0  0  0  0
  1  2  2  0
  1  3  2  0
  1  4  1  0
  1  8  1  0
  4  5  1  0
  4  6  1  0
  4  7  1  0
  8  9  1  0
  8 22  2  0
  9 10  1  0
  9 16  2  0
 10 11  1  0
 10 12  1  0
 12 13  1  0
 12 14  1  0
 12 15  1  0
 16 17  1  0
 16 18  1  0
 18 19  1  0
 18 20  2  0
 20 21  1  0
 20 22  1  0
 22 23  1  0
M  END
$$$$
