
     RDKit          3D

 19 19  0  0  0  0  0  0  0  0999 V2000
  -23.3872   11.8032   28.9345 Br  0  0  0  0  0  0  0  0  0  0  0  0
  -21.8740   12.1895   27.9056 C   0  0  0  0  0  0  0  0  0  0  0  0
  -21.2868   13.4168   27.9565 C   0  0  0  0  0  0  0  0  0  0  0  0
  -21.6664   14.1856   28.5743 H   0  0  0  0  0  0  0  0  0  0  0  0
  -20.1330   13.7090   27.1680 C   0  0  0  0  0  0  0  0  0  0  0  0
  -19.5645   14.8084   27.1531 O   0  0  0  0  0  0  0  0  0  0  0  0
  -19.6225   12.6902   26.3572 N   0  0  0  0  0  0  0  0  0  0  0  0
  -18.4364   12.9414   25.5367 C   0  0  0  0  0  0  0  0  0  0  0  0
  -17.7858   13.6604   26.0494 H   0  0  0  0  0  0  0  0  0  0  0  0
  -17.8430   12.0223   25.4445 H   0  0  0  0  0  0  0  0  0  0  0  0
  -18.7948   13.4822   24.1537 C   0  0  0  0  0  0  0  0  0  0  0  0
  -19.3039   14.4495   24.2163 H   0  0  0  0  0  0  0  0  0  0  0  0
  -19.4642   12.7890   23.6334 H   0  0  0  0  0  0  0  0  0  0  0  0
  -17.6220   13.6363   23.3630 O   0  0  0  0  0  0  0  0  0  0  0  0
  -17.3029   12.7434   23.1398 H   0  0  0  0  0  0  0  0  0  0  0  0
  -20.2265   11.4389   26.3021 C   0  0  0  0  0  0  0  0  0  0  0  0
  -19.7727   10.7324   25.6507 H   0  0  0  0  0  0  0  0  0  0  0  0
  -21.3315   11.1823   27.0591 C   0  0  0  0  0  0  0  0  0  0  0  0
  -21.7984   10.2313   27.0245 H   0  0  0  0  0  0  0  0  0  0  0  0
  1  2  1  0
  2  3  2  0
  2 18  1  0
  3  4  1  0
  3  5  1  0
  5  6  2  0
  5  7  1  0
  7  8  1  0
  7 16  1  0
  8  9  1  0
  8 10  1  0
  8 11  1  0
 11 12  1  0
 11 13  1  0
 11 14  1  0
 14 15  1  0
 16 17  1  0
 16 18  2  0
 18 19  1  0
M  END
$$$$
