
     RDKit          3D

 23 23  0  0  0  0  0  0  0  0999 V2000
  -18.4741   11.4038   24.8736 S   0  0  0  0  0  0  0  0  0  0  0  0
  -17.0389   11.1804   24.8046 O   0  0  0  0  0  0  0  0  0  0  0  0
  -19.3537   10.3963   25.4350 O   0  0  0  0  0  0  0  0  0  0  0  0
  -19.0372   11.7807   23.2345 C   0  0  0  0  0  0  0  0  0  0  0  0
  -18.4531   12.6146   22.8399 H   0  0  0  0  0  0  0  0  0  0  0  0
  -20.0991   12.0322   23.2675 H   0  0  0  0  0  0  0  0  0  0  0  0
  -18.8867   10.8962   22.6128 H   0  0  0  0  0  0  0  0  0  0  0  0
  -18.7566   12.9128   25.7562 C   0  0  0  0  0  0  0  0  0  0  0  0
  -19.7745   13.0555   26.7152 C   0  0  0  0  0  0  0  0  0  0  0  0
  -20.6190   11.9824   26.9883 N   0  0  0  0  0  0  0  0  0  0  0  0
  -20.2558   11.0400   26.7848 H   0  0  0  0  0  0  0  0  0  0  0  0
  -21.9643   12.0818   27.5004 C   0  0  0  0  0  0  0  0  0  0  0  0
  -21.9835   12.6046   28.4626 H   0  0  0  0  0  0  0  0  0  0  0  0
  -22.3693   11.0774   27.6593 H   0  0  0  0  0  0  0  0  0  0  0  0
  -22.6204   12.5960   26.7915 H   0  0  0  0  0  0  0  0  0  0  0  0
  -19.9200   14.2622   27.4124 C   0  0  0  0  0  0  0  0  0  0  0  0
  -20.6644   14.3682   28.1559 H   0  0  0  0  0  0  0  0  0  0  0  0
  -19.0830   15.3337   27.1308 C   0  0  0  0  0  0  0  0  0  0  0  0
  -19.1995   16.2489   27.6528 H   0  0  0  0  0  0  0  0  0  0  0  0
  -18.0926   15.2109   26.1619 C   0  0  0  0  0  0  0  0  0  0  0  0
  -17.4592   16.0335   25.9429 H   0  0  0  0  0  0  0  0  0  0  0  0
  -17.9311   14.0066   25.4835 C   0  0  0  0  0  0  0  0  0  0  0  0
  -17.1706   13.9180   24.7496 H   0  0  0  0  0  0  0  0  0  0  0  0
  1  2  2  0
  1  3  2  0
  1  4  1  0
  1  8  1  0
  4  5  1  0
  4  6  1  0
  4  7  1  0
  8  9  1  0
  8 22  2  0
  9 10  1  0
  9 16  2  0
 10 11  1  0
 10 12  1  0
 12 13  1  0
 12 14  1  0
 12 15  1  0
 16 17  1  0
 16 18  1  0
 18 19  1  0
 18 20  2  0
 20 21  1  0
 20 22  1  0
 22 23  1  0
M  END
$$$$
