
     RDKit          3D

 23 23  0  0  0  0  0  0  0  0999 V2000
  -20.5412   11.5770   26.6143 Cl  0  0  0  0  0  0  0  0  0  0  0  0
  -19.8134   13.1341   26.5114 C   0  0  0  0  0  0  0  0  0  0  0  0
  -18.9712   13.5293   25.4597 C   0  0  0  0  0  0  0  0  0  0  0  0
  -18.5872   12.6922   24.3037 C   0  0  0  0  0  0  0  0  0  0  0  0
  -18.8447   11.5169   24.0902 O   0  0  0  0  0  0  0  0  0  0  0  0
  -17.8449   13.2668   23.3242 N   0  0  0  0  0  0  0  0  0  0  0  0
  -17.5678   12.6908   22.5201 H   0  0  0  0  0  0  0  0  0  0  0  0
  -17.5673   14.2530   23.4080 H   0  0  0  0  0  0  0  0  0  0  0  0
  -18.4557   14.7842   25.4852 N   0  0  0  0  0  0  0  0  0  0  0  0
  -18.7395   15.6126   26.4784 C   0  0  0  0  0  0  0  0  0  0  0  0
  -18.1403   16.9959   26.4588 C   0  0  0  0  0  0  0  0  0  0  0  0
  -18.2522   17.4048   25.4466 H   0  0  0  0  0  0  0  0  0  0  0  0
  -18.8781   17.9242   27.4218 C   0  0  0  0  0  0  0  0  0  0  0  0
  -18.7864   17.5875   28.4613 H   0  0  0  0  0  0  0  0  0  0  0  0
  -19.9466   17.9692   27.1817 H   0  0  0  0  0  0  0  0  0  0  0  0
  -18.4771   18.9416   27.3625 H   0  0  0  0  0  0  0  0  0  0  0  0
  -16.6462   16.9468   26.7785 C   0  0  0  0  0  0  0  0  0  0  0  0
  -16.4603   16.5701   27.7905 H   0  0  0  0  0  0  0  0  0  0  0  0
  -16.2019   17.9456   26.7059 H   0  0  0  0  0  0  0  0  0  0  0  0
  -16.1170   16.2917   26.0782 H   0  0  0  0  0  0  0  0  0  0  0  0
  -19.5375   15.2571   27.4897 N   0  0  0  0  0  0  0  0  0  0  0  0
  -20.0719   14.0505   27.5239 C   0  0  0  0  0  0  0  0  0  0  0  0
  -20.7027   13.7883   28.3357 H   0  0  0  0  0  0  0  0  0  0  0  0
  1  2  1  0
  2  3  1  0
  2 22  2  0
  3  4  1  0
  3  9  2  0
  4  5  2  0
  4  6  1  0
  6  7  1  0
  6  8  1  0
  9 10  1  0
 10 11  1  0
 10 21  2  0
 11 12  1  0
 11 13  1  0
 11 17  1  0
 13 14  1  0
 13 15  1  0
 13 16  1  0
 17 18  1  0
 17 19  1  0
 17 20  1  0
 21 22  1  0
 22 23  1  0
M  END
$$$$
