
     RDKit          3D

 19 19  0  0  0  0  0  0  0  0999 V2000
  -16.0125   15.7580   27.6841 O   0  0  0  0  0  0  0  0  0  0  0  0
  -16.0641   16.3582   26.6201 C   0  0  0  0  0  0  0  0  0  0  0  0
  -17.1411   16.3354   25.8478 N   0  0  0  0  0  0  0  0  0  0  0  0
  -17.1466   16.8310   24.9729 H   0  0  0  0  0  0  0  0  0  0  0  0
  -18.3354   15.6046   26.2152 C   0  0  0  0  0  0  0  0  0  0  0  0
  -18.3000   15.3989   27.2906 H   0  0  0  0  0  0  0  0  0  0  0  0
  -19.2092   16.2360   26.0213 H   0  0  0  0  0  0  0  0  0  0  0  0
  -18.3921   14.3452   25.4276 C   0  0  0  0  0  0  0  0  0  0  0  0
  -18.1954   14.2036   24.0955 C   0  0  0  0  0  0  0  0  0  0  0  0
  -17.9690   14.9083   23.3371 H   0  0  0  0  0  0  0  0  0  0  0  0
  -18.3446   12.8860   23.8410 N   0  0  0  0  0  0  0  0  0  0  0  0
  -18.2533   12.4420   22.9081 H   0  0  0  0  0  0  0  0  0  0  0  0
  -18.6379   12.1821   24.9653 N   0  0  0  0  0  0  0  0  0  0  0  0
  -18.6626   13.0720   25.9190 C   0  0  0  0  0  0  0  0  0  0  0  0
  -18.8694   12.8318   26.9319 H   0  0  0  0  0  0  0  0  0  0  0  0
  -14.8989   17.1452   26.0879 C   0  0  0  0  0  0  0  0  0  0  0  0
  -15.2324   17.9378   25.4123 H   0  0  0  0  0  0  0  0  0  0  0  0
  -14.2292   16.4717   25.5477 H   0  0  0  0  0  0  0  0  0  0  0  0
  -14.3607   17.6047   26.9215 H   0  0  0  0  0  0  0  0  0  0  0  0
  1  2  2  0
  2  3  1  0
  2 16  1  0
  3  4  1  0
  3  5  1  0
  5  6  1  0
  5  7  1  0
  5  8  1  0
  8  9  2  0
  8 14  1  0
  9 10  1  0
  9 11  1  0
 11 12  1  0
 11 13  1  0
 13 14  2  0
 14 15  1  0
 16 17  1  0
 16 18  1  0
 16 19  1  0
M  END
$$$$
