
     RDKit          3D

 20 20  0  0  0  0  0  0  0  0999 V2000
  -17.9044   12.4321   24.0486 S   0  0  0  0  0  0  0  0  0  0  0  0
  -17.1474   13.5509   23.5361 O   0  0  0  0  0  0  0  0  0  0  0  0
  -17.2763   11.1796   24.4093 O   0  0  0  0  0  0  0  0  0  0  0  0
  -19.0976   12.0785   22.9107 N   0  0  0  0  0  0  0  0  0  0  0  0
  -18.7143   11.6353   22.0728 H   0  0  0  0  0  0  0  0  0  0  0  0
  -19.8888   11.5757   23.3209 H   0  0  0  0  0  0  0  0  0  0  0  0
  -18.8711   12.9851   25.4121 C   0  0  0  0  0  0  0  0  0  0  0  0
  -18.6410   14.2425   25.9782 C   0  0  0  0  0  0  0  0  0  0  0  0
  -17.8691   14.8678   25.6103 H   0  0  0  0  0  0  0  0  0  0  0  0
  -19.4426   14.6643   27.0281 C   0  0  0  0  0  0  0  0  0  0  0  0
  -19.2147   15.8699   27.5694 F   0  0  0  0  0  0  0  0  0  0  0  0
  -20.4745   13.8890   27.5351 C   0  0  0  0  0  0  0  0  0  0  0  0
  -21.0655   14.2511   28.3366 H   0  0  0  0  0  0  0  0  0  0  0  0
  -20.7181   12.6395   26.9697 C   0  0  0  0  0  0  0  0  0  0  0  0
  -21.8568   11.7945   27.4613 C   0  0  0  0  0  0  0  0  0  0  0  0
  -22.0518   11.9787   28.5230 H   0  0  0  0  0  0  0  0  0  0  0  0
  -21.6269   10.7294   27.3539 H   0  0  0  0  0  0  0  0  0  0  0  0
  -22.7628   12.0194   26.8910 H   0  0  0  0  0  0  0  0  0  0  0  0
  -19.9203   12.1996   25.9094 C   0  0  0  0  0  0  0  0  0  0  0  0
  -20.1105   11.2546   25.4638 H   0  0  0  0  0  0  0  0  0  0  0  0
  1  2  2  0
  1  3  2  0
  1  4  1  0
  1  7  1  0
  4  5  1  0
  4  6  1  0
  7  8  1  0
  7 19  2  0
  8  9  1  0
  8 10  2  0
 10 11  1  0
 10 12  1  0
 12 13  1  0
 12 14  2  0
 14 15  1  0
 14 19  1  0
 15 16  1  0
 15 17  1  0
 15 18  1  0
 19 20  1  0
M  END
$$$$
