
     RDKit          3D

 24 24  0  0  0  0  0  0  0  0999 V2000
  -17.2613   13.8759   22.9279 O   0  0  0  0  0  0  0  0  0  0  0  0
  -16.3164   13.6692   22.8152 H   0  0  0  0  0  0  0  0  0  0  0  0
  -17.5533   13.7527   24.3149 C   0  0  0  0  0  0  0  0  0  0  0  0
  -17.4042   12.7101   24.6116 H   0  0  0  0  0  0  0  0  0  0  0  0
  -16.8401   14.3778   24.8609 H   0  0  0  0  0  0  0  0  0  0  0  0
  -18.9820   14.2221   24.6189 C   0  0  0  0  0  0  0  0  0  0  0  0
  -19.7168   13.6319   24.0587 H   0  0  0  0  0  0  0  0  0  0  0  0
  -19.0936   15.2492   24.2490 H   0  0  0  0  0  0  0  0  0  0  0  0
  -19.2705   14.2139   26.0702 N   0  0  0  0  0  0  0  0  0  0  0  0
  -18.5963   15.2543   26.8462 C   0  0  0  0  0  0  0  0  0  0  0  0
  -17.8533   15.7934   26.2464 H   0  0  0  0  0  0  0  0  0  0  0  0
  -18.0614   14.8189   27.6973 H   0  0  0  0  0  0  0  0  0  0  0  0
  -19.3199   15.9924   27.2088 H   0  0  0  0  0  0  0  0  0  0  0  0
  -20.1099   13.2633   26.5982 C   0  0  0  0  0  0  0  0  0  0  0  0
  -19.9582   12.0330   26.0861 N   0  0  0  0  0  0  0  0  0  0  0  0
  -19.2493   11.9379   25.3505 H   0  0  0  0  0  0  0  0  0  0  0  0
  -20.6902   10.9562   26.5007 C   0  0  0  0  0  0  0  0  0  0  0  0
  -20.4720   10.0359   26.0170 H   0  0  0  0  0  0  0  0  0  0  0  0
  -21.6337   11.1234   27.4872 C   0  0  0  0  0  0  0  0  0  0  0  0
  -22.2130   10.3016   27.8254 H   0  0  0  0  0  0  0  0  0  0  0  0
  -21.8384   12.3956   28.0500 C   0  0  0  0  0  0  0  0  0  0  0  0
  -22.5738   12.5320   28.8062 H   0  0  0  0  0  0  0  0  0  0  0  0
  -21.0872   13.4591   27.6093 C   0  0  0  0  0  0  0  0  0  0  0  0
  -21.2448   14.4239   28.0122 H   0  0  0  0  0  0  0  0  0  0  0  0
  1  2  1  0
  1  3  1  0
  3  4  1  0
  3  5  1  0
  3  6  1  0
  6  7  1  0
  6  8  1  0
  6  9  1  0
  9 10  1  0
  9 14  1  0
 10 11  1  0
 10 12  1  0
 10 13  1  0
 14 15  1  0
 14 23  2  0
 15 16  1  0
 15 17  2  0
 17 18  1  0
 17 19  1  0
 19 20  1  0
 19 21  2  0
 21 22  1  0
 21 23  1  0
 23 24  1  0
M  END
$$$$
