
     RDKit          3D

 22 22  0  0  0  0  0  0  0  0999 V2000
  -17.3437   14.6087   24.1079 O   0  0  0  0  0  0  0  0  0  0  0  0
  -17.8765   14.3683   23.3302 H   0  0  0  0  0  0  0  0  0  0  0  0
  -18.1928   14.4923   25.2462 C   0  0  0  0  0  0  0  0  0  0  0  0
  -17.6277   14.7793   26.1397 H   0  0  0  0  0  0  0  0  0  0  0  0
  -19.0225   15.1936   25.1122 H   0  0  0  0  0  0  0  0  0  0  0  0
  -18.7325   13.0676   25.3545 C   0  0  0  0  0  0  0  0  0  0  0  0
  -19.4195   12.8855   24.5190 H   0  0  0  0  0  0  0  0  0  0  0  0
  -17.9095   12.3469   25.2641 H   0  0  0  0  0  0  0  0  0  0  0  0
  -19.4545   12.8152   26.6407 C   0  0  0  0  0  0  0  0  0  0  0  0
  -20.7865   12.8922   26.8591 C   0  0  0  0  0  0  0  0  0  0  0  0
  -21.5909   13.1393   26.2174 H   0  0  0  0  0  0  0  0  0  0  0  0
  -20.9688   12.5770   28.1602 N   0  0  0  0  0  0  0  0  0  0  0  0
  -22.2143   12.5081   28.8933 C   0  0  0  0  0  0  0  0  0  0  0  0
  -21.9926   12.1187   29.8926 H   0  0  0  0  0  0  0  0  0  0  0  0
  -22.5907   13.5305   29.0062 H   0  0  0  0  0  0  0  0  0  0  0  0
  -23.2393   11.6292   28.1991 C   0  0  0  0  0  0  0  0  0  0  0  0
  -22.8679   10.6040   28.0860 H   0  0  0  0  0  0  0  0  0  0  0  0
  -23.4759   12.0096   27.1997 H   0  0  0  0  0  0  0  0  0  0  0  0
  -24.1659   11.5944   28.7802 H   0  0  0  0  0  0  0  0  0  0  0  0
  -19.7947   12.3048   28.7824 N   0  0  0  0  0  0  0  0  0  0  0  0
  -18.8851   12.4483   27.8570 C   0  0  0  0  0  0  0  0  0  0  0  0
  -17.8465   12.3040   28.0289 H   0  0  0  0  0  0  0  0  0  0  0  0
  1  2  1  0
  1  3  1  0
  3  4  1  0
  3  5  1  0
  3  6  1  0
  6  7  1  0
  6  8  1  0
  6  9  1  0
  9 10  2  0
  9 21  1  0
 10 11  1  0
 10 12  1  0
 12 13  1  0
 12 20  1  0
 13 14  1  0
 13 15  1  0
 13 16  1  0
 16 17  1  0
 16 18  1  0
 16 19  1  0
 20 21  2  0
 21 22  1  0
M  END
$$$$
