
     RDKit          3D

 16 17  0  0  0  0  0  0  0  0999 V2000
  -18.2394   20.0854   26.0113 Br  0  0  0  0  0  0  0  0  0  0  0  0
  -17.0845   18.7719   26.7414 C   0  0  0  0  0  0  0  0  0  0  0  0
  -17.4110   17.3890   26.7901 C   0  0  0  0  0  0  0  0  0  0  0  0
  -16.4586   16.5113   27.3622 C   0  0  0  0  0  0  0  0  0  0  0  0
  -15.2683   16.9650   27.8505 N   0  0  0  0  0  0  0  0  0  0  0  0
  -14.9846   18.2346   27.7982 C   0  0  0  0  0  0  0  0  0  0  0  0
  -14.0496   18.5587   28.1858 H   0  0  0  0  0  0  0  0  0  0  0  0
  -15.8746   19.1762   27.2472 C   0  0  0  0  0  0  0  0  0  0  0  0
  -15.5969   20.1989   27.2279 H   0  0  0  0  0  0  0  0  0  0  0  0
  -16.6866   15.1691   27.4511 N   0  0  0  0  0  0  0  0  0  0  0  0
  -17.8036   14.6674   27.0030 C   0  0  0  0  0  0  0  0  0  0  0  0
  -17.9535   13.6189   27.0859 H   0  0  0  0  0  0  0  0  0  0  0  0
  -18.8048   15.4722   26.4186 C   0  0  0  0  0  0  0  0  0  0  0  0
  -19.6950   15.0158   26.0690 H   0  0  0  0  0  0  0  0  0  0  0  0
  -18.6210   16.8268   26.3072 C   0  0  0  0  0  0  0  0  0  0  0  0
  -19.3713   17.4330   25.8691 H   0  0  0  0  0  0  0  0  0  0  0  0
  1  2  1  0
  2  3  1  0
  2  8  2  0
  3  4  1  0
  3 15  2  0
  4  5  1  0
  4 10  2  0
  5  6  2  0
  6  7  1  0
  6  8  1  0
  8  9  1  0
 10 11  1  0
 11 12  1  0
 11 13  2  0
 13 14  1  0
 13 15  1  0
 15 16  1  0
M  END
$$$$
