
     RDKit          3D

 29 30  0  0  0  0  0  0  0  0999 V2000
  -16.1069   16.0616   27.9107 O   0  0  0  0  0  0  0  0  0  0  0  0
  -16.1832   16.6888   26.8708 C   0  0  0  0  0  0  0  0  0  0  0  0
  -16.9471   16.2366   25.8296 N   0  0  0  0  0  0  0  0  0  0  0  0
  -16.9383   16.8284   24.9908 H   0  0  0  0  0  0  0  0  0  0  0  0
  -17.7185   15.0829   25.7767 C   0  0  0  0  0  0  0  0  0  0  0  0
  -17.9974   14.2314   26.7853 C   0  0  0  0  0  0  0  0  0  0  0  0
  -17.7191   14.2283   27.8050 H   0  0  0  0  0  0  0  0  0  0  0  0
  -18.7786   13.2740   26.2261 N   0  0  0  0  0  0  0  0  0  0  0  0
  -19.3530   12.1138   26.8719 C   0  0  0  0  0  0  0  0  0  0  0  0
  -19.3596   11.2968   26.1412 H   0  0  0  0  0  0  0  0  0  0  0  0
  -18.6876   11.8242   27.6923 H   0  0  0  0  0  0  0  0  0  0  0  0
  -20.7527   12.3820   27.3948 C   0  0  0  0  0  0  0  0  0  0  0  0
  -21.1540   11.4886   27.8826 H   0  0  0  0  0  0  0  0  0  0  0  0
  -20.7502   13.1987   28.1239 H   0  0  0  0  0  0  0  0  0  0  0  0
  -21.4313   12.6616   26.5822 H   0  0  0  0  0  0  0  0  0  0  0  0
  -19.0022   13.5018   24.8979 N   0  0  0  0  0  0  0  0  0  0  0  0
  -18.3512   14.6049   24.6338 C   0  0  0  0  0  0  0  0  0  0  0  0
  -18.3247   15.0520   23.6740 H   0  0  0  0  0  0  0  0  0  0  0  0
  -15.4492   18.0329   26.5863 C   0  0  0  0  0  0  0  0  0  0  0  0
  -16.1475   18.8783   26.4901 H   0  0  0  0  0  0  0  0  0  0  0  0
  -14.2648   18.4049   27.5206 C   0  0  0  0  0  0  0  0  0  0  0  0
  -13.7468   17.5459   27.9608 H   0  0  0  0  0  0  0  0  0  0  0  0
  -14.4956   19.1232   28.3125 H   0  0  0  0  0  0  0  0  0  0  0  0
  -13.5556   18.9898   26.2849 C   0  0  0  0  0  0  0  0  0  0  0  0
  -12.4759   18.8300   26.2356 H   0  0  0  0  0  0  0  0  0  0  0  0
  -13.7695   20.0514   26.1160 H   0  0  0  0  0  0  0  0  0  0  0  0
  -14.4147   18.0420   25.4267 C   0  0  0  0  0  0  0  0  0  0  0  0
  -13.9414   17.0718   25.2339 H   0  0  0  0  0  0  0  0  0  0  0  0
  -14.7689   18.4575   24.4800 H   0  0  0  0  0  0  0  0  0  0  0  0
  1  2  2  0
  2  3  1  0
  2 19  1  0
  3  4  1  0
  3  5  1  0
  5  6  2  0
  5 17  1  0
  6  7  1  0
  6  8  1  0
  8  9  1  0
  8 16  1  0
  9 10  1  0
  9 11  1  0
  9 12  1  0
 12 13  1  0
 12 14  1  0
 12 15  1  0
 16 17  2  0
 17 18  1  0
 19 20  1  0
 19 21  1  0
 19 27  1  0
 21 22  1  0
 21 23  1  0
 21 24  1  0
 24 25  1  0
 24 26  1  0
 24 27  1  0
 27 28  1  0
 27 29  1  0
M  END
$$$$
