
     RDKit          3D

 22 22  0  0  0  0  0  0  0  0999 V2000
  -18.0525   10.1771   24.1280 O   0  0  0  0  0  0  0  0  0  0  0  0
  -17.7308   10.8113   23.4640 H   0  0  0  0  0  0  0  0  0  0  0  0
  -19.0769   10.8341   24.8691 C   0  0  0  0  0  0  0  0  0  0  0  0
  -19.8366   11.2033   24.1715 H   0  0  0  0  0  0  0  0  0  0  0  0
  -19.5347   10.0910   25.5297 H   0  0  0  0  0  0  0  0  0  0  0  0
  -18.4783   11.9665   25.7011 C   0  0  0  0  0  0  0  0  0  0  0  0
  -17.7040   11.5512   26.3578 H   0  0  0  0  0  0  0  0  0  0  0  0
  -17.9913   12.6980   25.0434 H   0  0  0  0  0  0  0  0  0  0  0  0
  -19.4967   12.6744   26.5382 C   0  0  0  0  0  0  0  0  0  0  0  0
  -20.6815   12.1869   26.9702 C   0  0  0  0  0  0  0  0  0  0  0  0
  -21.1501   11.2490   26.8265 H   0  0  0  0  0  0  0  0  0  0  0  0
  -21.2508   13.1779   27.6908 N   0  0  0  0  0  0  0  0  0  0  0  0
  -22.5257   13.1617   28.3746 C   0  0  0  0  0  0  0  0  0  0  0  0
  -22.5943   14.0751   28.9751 H   0  0  0  0  0  0  0  0  0  0  0  0
  -23.3122   13.1994   27.6132 H   0  0  0  0  0  0  0  0  0  0  0  0
  -22.6868   11.9363   29.2565 C   0  0  0  0  0  0  0  0  0  0  0  0
  -21.9031   11.8955   30.0219 H   0  0  0  0  0  0  0  0  0  0  0  0
  -22.6263   11.0142   28.6688 H   0  0  0  0  0  0  0  0  0  0  0  0
  -23.6571   11.9568   29.7621 H   0  0  0  0  0  0  0  0  0  0  0  0
  -20.4695   14.2859   27.7299 N   0  0  0  0  0  0  0  0  0  0  0  0
  -19.4105   13.9726   27.0335 C   0  0  0  0  0  0  0  0  0  0  0  0
  -18.5979   14.6378   26.8716 H   0  0  0  0  0  0  0  0  0  0  0  0
  1  2  1  0
  1  3  1  0
  3  4  1  0
  3  5  1  0
  3  6  1  0
  6  7  1  0
  6  8  1  0
  6  9  1  0
  9 10  2  0
  9 21  1  0
 10 11  1  0
 10 12  1  0
 12 13  1  0
 12 20  1  0
 13 14  1  0
 13 15  1  0
 13 16  1  0
 16 17  1  0
 16 18  1  0
 16 19  1  0
 20 21  2  0
 21 22  1  0
M  END
$$$$
