
     RDKit          3D

 29 30  0  0  0  0  0  0  0  0999 V2000
  -18.9887   15.5204   24.9509 O   0  0  0  0  0  0  0  0  0  0  0  0
  -18.9042   14.8501   25.9627 C   0  0  0  0  0  0  0  0  0  0  0  0
  -18.0967   15.2354   26.9979 N   0  0  0  0  0  0  0  0  0  0  0  0
  -18.0830   14.5985   27.8029 H   0  0  0  0  0  0  0  0  0  0  0  0
  -17.3014   16.3710   27.0812 C   0  0  0  0  0  0  0  0  0  0  0  0
  -17.2472   17.4041   26.2153 C   0  0  0  0  0  0  0  0  0  0  0  0
  -17.7642   17.5989   25.3142 H   0  0  0  0  0  0  0  0  0  0  0  0
  -16.3248   18.2491   26.7395 N   0  0  0  0  0  0  0  0  0  0  0  0
  -15.8790   19.5153   26.2001 C   0  0  0  0  0  0  0  0  0  0  0  0
  -16.7609   20.0417   25.8174 H   0  0  0  0  0  0  0  0  0  0  0  0
  -15.4694   20.1053   27.0271 H   0  0  0  0  0  0  0  0  0  0  0  0
  -14.8388   19.3400   25.1085 C   0  0  0  0  0  0  0  0  0  0  0  0
  -14.5185   20.3148   24.7284 H   0  0  0  0  0  0  0  0  0  0  0  0
  -13.9569   18.8130   25.4869 H   0  0  0  0  0  0  0  0  0  0  0  0
  -15.2397   18.7612   24.2699 H   0  0  0  0  0  0  0  0  0  0  0  0
  -15.8020   17.7794   27.9109 N   0  0  0  0  0  0  0  0  0  0  0  0
  -16.4023   16.6345   28.1094 C   0  0  0  0  0  0  0  0  0  0  0  0
  -16.2121   16.0125   28.9453 H   0  0  0  0  0  0  0  0  0  0  0  0
  -19.6642   13.5131   26.2107 C   0  0  0  0  0  0  0  0  0  0  0  0
  -20.7168   13.6760   26.4884 H   0  0  0  0  0  0  0  0  0  0  0  0
  -19.5505   12.4196   25.1129 C   0  0  0  0  0  0  0  0  0  0  0  0
  -18.6252   12.4580   24.5280 H   0  0  0  0  0  0  0  0  0  0  0  0
  -20.4000   12.3484   24.4275 H   0  0  0  0  0  0  0  0  0  0  0  0
  -19.5258   11.3750   26.2443 C   0  0  0  0  0  0  0  0  0  0  0  0
  -18.8574   10.5242   26.0922 H   0  0  0  0  0  0  0  0  0  0  0  0
  -20.5191   11.0057   26.5241 H   0  0  0  0  0  0  0  0  0  0  0  0
  -18.9969   12.4877   27.1689 C   0  0  0  0  0  0  0  0  0  0  0  0
  -17.9026   12.5470   27.2054 H   0  0  0  0  0  0  0  0  0  0  0  0
  -19.3850   12.4729   28.1905 H   0  0  0  0  0  0  0  0  0  0  0  0
  1  2  2  0
  2  3  1  0
  2 19  1  0
  3  4  1  0
  3  5  1  0
  5  6  2  0
  5 17  1  0
  6  7  1  0
  6  8  1  0
  8  9  1  0
  8 16  1  0
  9 10  1  0
  9 11  1  0
  9 12  1  0
 12 13  1  0
 12 14  1  0
 12 15  1  0
 16 17  2  0
 17 18  1  0
 19 20  1  0
 19 21  1  0
 19 27  1  0
 21 22  1  0
 21 23  1  0
 21 24  1  0
 24 25  1  0
 24 26  1  0
 24 27  1  0
 27 28  1  0
 27 29  1  0
M  END
$$$$
