
     RDKit          3D

 19 19  0  0  0  0  0  0  0  0999 V2000
  -27.0185   14.9992   30.5998 Br  0  0  0  0  0  0  0  0  0  0  0  0
  -25.9569   14.4440   29.1684 C   0  0  0  0  0  0  0  0  0  0  0  0
  -24.9859   13.5058   29.1678 C   0  0  0  0  0  0  0  0  0  0  0  0
  -24.5984   12.8910   29.9385 H   0  0  0  0  0  0  0  0  0  0  0  0
  -24.5123   13.4672   27.9028 N   0  0  0  0  0  0  0  0  0  0  0  0
  -23.4666   12.6209   27.3635 C   0  0  0  0  0  0  0  0  0  0  0  0
  -23.8021   11.5833   27.4693 H   0  0  0  0  0  0  0  0  0  0  0  0
  -23.3848   12.8536   26.2966 H   0  0  0  0  0  0  0  0  0  0  0  0
  -22.1366   12.8468   28.0661 C   0  0  0  0  0  0  0  0  0  0  0  0
  -22.1862   12.5470   29.1195 H   0  0  0  0  0  0  0  0  0  0  0  0
  -21.8765   13.9095   28.0116 H   0  0  0  0  0  0  0  0  0  0  0  0
  -21.1193   12.0983   27.3946 O   0  0  0  0  0  0  0  0  0  0  0  0
  -19.8197   12.4491   27.8516 C   0  0  0  0  0  0  0  0  0  0  0  0
  -19.0879   11.8577   27.2954 H   0  0  0  0  0  0  0  0  0  0  0  0
  -19.7153   12.2229   28.9167 H   0  0  0  0  0  0  0  0  0  0  0  0
  -19.6234   13.5101   27.6706 H   0  0  0  0  0  0  0  0  0  0  0  0
  -25.1499   14.3598   27.0947 N   0  0  0  0  0  0  0  0  0  0  0  0
  -26.0253   14.9440   27.8725 C   0  0  0  0  0  0  0  0  0  0  0  0
  -26.6893   15.6999   27.5402 H   0  0  0  0  0  0  0  0  0  0  0  0
  1  2  1  0
  2  3  2  0
  2 18  1  0
  3  4  1  0
  3  5  1  0
  5  6  1  0
  5 17  1  0
  6  7  1  0
  6  8  1  0
  6  9  1  0
  9 10  1  0
  9 11  1  0
  9 12  1  0
 12 13  1  0
 13 14  1  0
 13 15  1  0
 13 16  1  0
 17 18  2  0
 18 19  1  0
M  END
$$$$
