
     RDKit          3D

 23 23  0  0  0  0  0  0  0  0999 V2000
  -18.1747   12.0959   24.7272 S   0  0  0  0  0  0  0  0  0  0  0  0
  -17.2778   13.2006   24.4276 O   0  0  0  0  0  0  0  0  0  0  0  0
  -17.6493   10.7882   25.0704 O   0  0  0  0  0  0  0  0  0  0  0  0
  -19.2728   11.9077   23.3470 C   0  0  0  0  0  0  0  0  0  0  0  0
  -19.7602   12.8640   23.1464 H   0  0  0  0  0  0  0  0  0  0  0  0
  -20.0108   11.1367   23.5766 H   0  0  0  0  0  0  0  0  0  0  0  0
  -18.6804   11.6053   22.4815 H   0  0  0  0  0  0  0  0  0  0  0  0
  -19.2538   12.5999   26.0377 C   0  0  0  0  0  0  0  0  0  0  0  0
  -19.2762   13.9108   26.5446 C   0  0  0  0  0  0  0  0  0  0  0  0
  -18.4106   14.8672   26.0198 N   0  0  0  0  0  0  0  0  0  0  0  0
  -17.5410   14.5222   25.5884 H   0  0  0  0  0  0  0  0  0  0  0  0
  -18.6146   16.2952   26.0575 C   0  0  0  0  0  0  0  0  0  0  0  0
  -19.5499   16.5742   25.5608 H   0  0  0  0  0  0  0  0  0  0  0  0
  -17.7959   16.7948   25.5301 H   0  0  0  0  0  0  0  0  0  0  0  0
  -18.6220   16.6666   27.0868 H   0  0  0  0  0  0  0  0  0  0  0  0
  -20.1844   14.2597   27.5531 C   0  0  0  0  0  0  0  0  0  0  0  0
  -20.2275   15.2507   27.9195 H   0  0  0  0  0  0  0  0  0  0  0  0
  -21.0392   13.3016   28.0815 C   0  0  0  0  0  0  0  0  0  0  0  0
  -21.7198   13.5646   28.8502 H   0  0  0  0  0  0  0  0  0  0  0  0
  -21.0028   11.9947   27.6066 C   0  0  0  0  0  0  0  0  0  0  0  0
  -21.6516   11.2624   28.0173 H   0  0  0  0  0  0  0  0  0  0  0  0
  -20.1174   11.6504   26.5896 C   0  0  0  0  0  0  0  0  0  0  0  0
  -20.0984   10.6533   26.2285 H   0  0  0  0  0  0  0  0  0  0  0  0
  1  2  2  0
  1  3  2  0
  1  4  1  0
  1  8  1  0
  4  5  1  0
  4  6  1  0
  4  7  1  0
  8  9  1  0
  8 22  2  0
  9 10  1  0
  9 16  2  0
 10 11  1  0
 10 12  1  0
 12 13  1  0
 12 14  1  0
 12 15  1  0
 16 17  1  0
 16 18  1  0
 18 19  1  0
 18 20  2  0
 20 21  1  0
 20 22  1  0
 22 23  1  0
M  END
$$$$
