
     RDKit          3D

 23 24  0  0  0  0  0  0  0  0999 V2000
  -17.4777   14.6102   23.9511 O   0  0  0  0  0  0  0  0  0  0  0  0
  -17.6722   14.7402   25.1557 C   0  0  0  0  0  0  0  0  0  0  0  0
  -18.2784   13.6814   25.8120 N   0  0  0  0  0  0  0  0  0  0  0  0
  -18.7140   13.6181   27.2029 C   0  0  0  0  0  0  0  0  0  0  0  0
  -17.9019   13.8558   27.8908 H   0  0  0  0  0  0  0  0  0  0  0  0
  -19.5257   14.3410   27.3359 H   0  0  0  0  0  0  0  0  0  0  0  0
  -19.1937   12.1848   27.4001 C   0  0  0  0  0  0  0  0  0  0  0  0
  -18.3573   11.5531   27.7237 H   0  0  0  0  0  0  0  0  0  0  0  0
  -19.9888   12.1062   28.1450 H   0  0  0  0  0  0  0  0  0  0  0  0
  -19.6375   11.7703   26.0057 C   0  0  0  0  0  0  0  0  0  0  0  0
  -20.6375   12.1711   25.8009 H   0  0  0  0  0  0  0  0  0  0  0  0
  -19.6657   10.6858   25.8694 H   0  0  0  0  0  0  0  0  0  0  0  0
  -18.6113   12.4479   25.1128 C   0  0  0  0  0  0  0  0  0  0  0  0
  -18.9950   12.6446   24.1077 H   0  0  0  0  0  0  0  0  0  0  0  0
  -17.6940   11.8529   25.0325 H   0  0  0  0  0  0  0  0  0  0  0  0
  -17.3490   15.9629   25.8657 C   0  0  0  0  0  0  0  0  0  0  0  0
  -16.0758   16.3954   26.0912 C   0  0  0  0  0  0  0  0  0  0  0  0
  -15.1395   15.9873   25.8100 H   0  0  0  0  0  0  0  0  0  0  0  0
  -16.1896   17.5293   26.8011 N   0  0  0  0  0  0  0  0  0  0  0  0
  -15.3925   18.1054   27.1339 H   0  0  0  0  0  0  0  0  0  0  0  0
  -17.4894   17.8486   27.0531 N   0  0  0  0  0  0  0  0  0  0  0  0
  -18.1786   16.8950   26.4943 C   0  0  0  0  0  0  0  0  0  0  0  0
  -19.2368   16.8466   26.5363 H   0  0  0  0  0  0  0  0  0  0  0  0
  1  2  2  0
  2  3  1  0
  2 16  1  0
  3  4  1  0
  3 13  1  0
  4  5  1  0
  4  6  1  0
  4  7  1  0
  7  8  1  0
  7  9  1  0
  7 10  1  0
 10 11  1  0
 10 12  1  0
 10 13  1  0
 13 14  1  0
 13 15  1  0
 16 17  2  0
 16 22  1  0
 17 18  1  0
 17 19  1  0
 19 20  1  0
 19 21  1  0
 21 22  2  0
 22 23  1  0
M  END
$$$$
