
     RDKit          3D

 29 30  0  0  0  0  0  0  0  0999 V2000
  -19.9909   12.3194   29.3152 F   0  0  0  0  0  0  0  0  0  0  0  0
  -19.7586   12.3227   27.9937 C   0  0  0  0  0  0  0  0  0  0  0  0
  -20.7371   12.8102   27.1244 C   0  0  0  0  0  0  0  0  0  0  0  0
  -22.0482   13.3480   27.6400 C   0  0  0  0  0  0  0  0  0  0  0  0
  -22.6508   13.7361   26.8088 H   0  0  0  0  0  0  0  0  0  0  0  0
  -21.8318   14.2243   28.2659 H   0  0  0  0  0  0  0  0  0  0  0  0
  -22.8637   12.3302   28.4304 C   0  0  0  0  0  0  0  0  0  0  0  0
  -22.9914   12.5898   29.8977 C   0  0  0  0  0  0  0  0  0  0  0  0
  -22.4465   11.9162   30.7487 O   0  0  0  0  0  0  0  0  0  0  0  0
  -23.7796   13.6290   30.2677 N   0  0  0  0  0  0  0  0  0  0  0  0
  -24.2584   14.1373   29.5375 H   0  0  0  0  0  0  0  0  0  0  0  0
  -23.9750   14.0208   31.6405 C   0  0  0  0  0  0  0  0  0  0  0  0
  -24.4928   13.2172   32.1707 H   0  0  0  0  0  0  0  0  0  0  0  0
  -23.0048   14.2016   32.1098 H   0  0  0  0  0  0  0  0  0  0  0  0
  -24.5771   14.9325   31.6625 H   0  0  0  0  0  0  0  0  0  0  0  0
  -22.9619   10.8713   27.9743 C   0  0  0  0  0  0  0  0  0  0  0  0
  -23.0812   10.1031   28.7329 H   0  0  0  0  0  0  0  0  0  0  0  0
  -22.4075   10.5305   27.1084 H   0  0  0  0  0  0  0  0  0  0  0  0
  -24.1129   11.7881   27.7319 C   0  0  0  0  0  0  0  0  0  0  0  0
  -25.0115   11.6442   28.3221 H   0  0  0  0  0  0  0  0  0  0  0  0
  -24.3125   12.0844   26.7084 H   0  0  0  0  0  0  0  0  0  0  0  0
  -20.4656   12.7868   25.7560 C   0  0  0  0  0  0  0  0  0  0  0  0
  -21.1841   13.1443   25.0638 H   0  0  0  0  0  0  0  0  0  0  0  0
  -19.2494   12.2898   25.2859 C   0  0  0  0  0  0  0  0  0  0  0  0
  -19.0537   12.2769   24.2424 H   0  0  0  0  0  0  0  0  0  0  0  0
  -18.2878   11.8103   26.1747 C   0  0  0  0  0  0  0  0  0  0  0  0
  -17.3659   11.4343   25.8087 H   0  0  0  0  0  0  0  0  0  0  0  0
  -18.5425   11.8253   27.5421 C   0  0  0  0  0  0  0  0  0  0  0  0
  -17.8254   11.4648   28.2329 H   0  0  0  0  0  0  0  0  0  0  0  0
  1  2  1  0
  2  3  1  0
  2 28  2  0
  3  4  1  0
  3 22  2  0
  4  5  1  0
  4  6  1  0
  4  7  1  0
  7  8  1  0
  7 16  1  0
  7 19  1  0
  8  9  2  0
  8 10  1  0
 10 11  1  0
 10 12  1  0
 12 13  1  0
 12 14  1  0
 12 15  1  0
 16 17  1  0
 16 18  1  0
 16 19  1  0
 19 20  1  0
 19 21  1  0
 22 23  1  0
 22 24  1  0
 24 25  1  0
 24 26  2  0
 26 27  1  0
 26 28  1  0
 28 29  1  0
M  END
$$$$
