
     RDKit          3D

 29 30  0  0  0  0  0  0  0  0999 V2000
  -17.1667   17.1710   25.9298 O   0  0  0  0  0  0  0  0  0  0  0  0
  -18.3627   16.9784   25.8114 C   0  0  0  0  0  0  0  0  0  0  0  0
  -19.2013   17.9900   25.9217 N   0  0  0  0  0  0  0  0  0  0  0  0
  -18.7952   18.8888   26.1273 H   0  0  0  0  0  0  0  0  0  0  0  0
  -20.1969   17.8642   25.8739 H   0  0  0  0  0  0  0  0  0  0  0  0
  -18.9823   15.6253   25.5764 C   0  0  0  0  0  0  0  0  0  0  0  0
  -20.0677   15.7797   25.5408 H   0  0  0  0  0  0  0  0  0  0  0  0
  -18.6650   15.2428   24.6007 H   0  0  0  0  0  0  0  0  0  0  0  0
  -18.6517   14.6372   26.6870 C   0  0  0  0  0  0  0  0  0  0  0  0
  -19.0654   15.0067   27.6329 H   0  0  0  0  0  0  0  0  0  0  0  0
  -17.5748   14.5283   26.8484 H   0  0  0  0  0  0  0  0  0  0  0  0
  -19.2469   13.3088   26.4501 N   0  0  0  0  0  0  0  0  0  0  0  0
  -18.8197   12.4175   25.5622 C   0  0  0  0  0  0  0  0  0  0  0  0
  -17.6782   12.5577   24.6159 C   0  0  0  0  0  0  0  0  0  0  0  0
  -17.5917   11.6262   24.0544 H   0  0  0  0  0  0  0  0  0  0  0  0
  -16.7792   12.7414   25.2024 H   0  0  0  0  0  0  0  0  0  0  0  0
  -17.9068   13.3914   23.9506 H   0  0  0  0  0  0  0  0  0  0  0  0
  -19.5908   11.3570   25.6478 N   0  0  0  0  0  0  0  0  0  0  0  0
  -19.4715   10.5152   25.0610 H   0  0  0  0  0  0  0  0  0  0  0  0
  -20.5789   11.5392   26.5798 C   0  0  0  0  0  0  0  0  0  0  0  0
  -20.3803   12.7959   27.0996 C   0  0  0  0  0  0  0  0  0  0  0  0
  -21.2371   13.3224   28.0719 C   0  0  0  0  0  0  0  0  0  0  0  0
  -21.0970   14.2964   28.4625 H   0  0  0  0  0  0  0  0  0  0  0  0
  -22.2858   12.5193   28.5080 C   0  0  0  0  0  0  0  0  0  0  0  0
  -22.9553   12.8824   29.2484 H   0  0  0  0  0  0  0  0  0  0  0  0
  -22.4787   11.2198   27.9764 C   0  0  0  0  0  0  0  0  0  0  0  0
  -23.2882   10.6298   28.3303 H   0  0  0  0  0  0  0  0  0  0  0  0
  -21.6245   10.7145   27.0022 C   0  0  0  0  0  0  0  0  0  0  0  0
  -21.7616    9.7466   26.5933 H   0  0  0  0  0  0  0  0  0  0  0  0
  1  2  2  0
  2  3  1  0
  2  6  1  0
  3  4  1  0
  3  5  1  0
  6  7  1  0
  6  8  1  0
  6  9  1  0
  9 10  1  0
  9 11  1  0
  9 12  1  0
 12 13  2  0
 12 21  1  0
 13 14  1  0
 13 18  1  0
 14 15  1  0
 14 16  1  0
 14 17  1  0
 18 19  1  0
 18 20  1  0
 20 21  1  0
 20 28  2  0
 21 22  2  0
 22 23  1  0
 22 24  1  0
 24 25  1  0
 24 26  2  0
 26 27  1  0
 26 28  1  0
 28 29  1  0
M  END
$$$$
