
     RDKit          3D

 32 33  0  0  0  0  0  0  0  0999 V2000
  -15.4898   16.2975   27.1610 O   0  0  0  0  0  0  0  0  0  0  0  0
  -16.0848   17.1315   26.5072 C   0  0  0  0  0  0  0  0  0  0  0  0
  -17.3530   16.8936   26.0586 N   0  0  0  0  0  0  0  0  0  0  0  0
  -17.7541   17.6641   25.5149 H   0  0  0  0  0  0  0  0  0  0  0  0
  -18.1336   15.7627   26.2441 C   0  0  0  0  0  0  0  0  0  0  0  0
  -17.8108   14.6395   26.9179 C   0  0  0  0  0  0  0  0  0  0  0  0
  -16.9371   14.3604   27.4457 H   0  0  0  0  0  0  0  0  0  0  0  0
  -18.8989   13.8407   26.8054 N   0  0  0  0  0  0  0  0  0  0  0  0
  -19.0782   12.5084   27.3427 C   0  0  0  0  0  0  0  0  0  0  0  0
  -18.4250   12.4139   28.2168 H   0  0  0  0  0  0  0  0  0  0  0  0
  -20.1151   12.4227   27.6856 H   0  0  0  0  0  0  0  0  0  0  0  0
  -18.7707   11.4292   26.3199 C   0  0  0  0  0  0  0  0  0  0  0  0
  -17.7325   11.4929   25.9772 H   0  0  0  0  0  0  0  0  0  0  0  0
  -19.4180   11.5226   25.4410 H   0  0  0  0  0  0  0  0  0  0  0  0
  -18.9264   10.4376   26.7550 H   0  0  0  0  0  0  0  0  0  0  0  0
  -19.8993   14.4285   26.0854 N   0  0  0  0  0  0  0  0  0  0  0  0
  -19.4230   15.5987   25.7460 C   0  0  0  0  0  0  0  0  0  0  0  0
  -19.9634   16.3064   25.1728 H   0  0  0  0  0  0  0  0  0  0  0  0
  -15.4651   18.4695   26.1324 C   0  0  0  0  0  0  0  0  0  0  0  0
  -15.2425   18.4269   25.0587 H   0  0  0  0  0  0  0  0  0  0  0  0
  -16.4012   19.6518   26.4156 C   0  0  0  0  0  0  0  0  0  0  0  0
  -16.8969   19.9981   25.5024 H   0  0  0  0  0  0  0  0  0  0  0  0
  -17.1905   19.3923   27.1292 H   0  0  0  0  0  0  0  0  0  0  0  0
  -15.5066   20.7370   26.9978 C   0  0  0  0  0  0  0  0  0  0  0  0
  -15.0224   21.2998   26.1911 H   0  0  0  0  0  0  0  0  0  0  0  0
  -16.0617   21.4433   27.6213 H   0  0  0  0  0  0  0  0  0  0  0  0
  -14.4703   19.9572   27.7873 C   0  0  0  0  0  0  0  0  0  0  0  0
  -14.8933   19.6202   28.7400 H   0  0  0  0  0  0  0  0  0  0  0  0
  -13.5787   20.5523   28.0035 H   0  0  0  0  0  0  0  0  0  0  0  0
  -14.1623   18.7643   26.8908 C   0  0  0  0  0  0  0  0  0  0  0  0
  -13.7789   17.9146   27.4645 H   0  0  0  0  0  0  0  0  0  0  0  0
  -13.3835   19.0470   26.1706 H   0  0  0  0  0  0  0  0  0  0  0  0
  1  2  2  0
  2  3  1  0
  2 19  1  0
  3  4  1  0
  3  5  1  0
  5  6  2  0
  5 17  1  0
  6  7  1  0
  6  8  1  0
  8  9  1  0
  8 16  1  0
  9 10  1  0
  9 11  1  0
  9 12  1  0
 12 13  1  0
 12 14  1  0
 12 15  1  0
 16 17  2  0
 17 18  1  0
 19 20  1  0
 19 21  1  0
 19 30  1  0
 21 22  1  0
 21 23  1  0
 21 24  1  0
 24 25  1  0
 24 26  1  0
 24 27  1  0
 27 28  1  0
 27 29  1  0
 27 30  1  0
 30 31  1  0
 30 32  1  0
M  END
$$$$
