
     RDKit          3D

 19 19  0  0  0  0  0  0  0  0999 V2000
  -17.6707   13.8561   27.8288 O   0  0  0  0  0  0  0  0  0  0  0  0
  -18.2515   13.6060   26.7751 C   0  0  0  0  0  0  0  0  0  0  0  0
  -18.0277   14.4822   25.7148 N   0  0  0  0  0  0  0  0  0  0  0  0
  -17.4114   15.7786   25.9623 C   0  0  0  0  0  0  0  0  0  0  0  0
  -18.0090   16.5532   25.4709 H   0  0  0  0  0  0  0  0  0  0  0  0
  -16.4030   15.7719   25.5386 H   0  0  0  0  0  0  0  0  0  0  0  0
  -17.3488   16.0135   27.0276 H   0  0  0  0  0  0  0  0  0  0  0  0
  -18.3418   14.1914   24.3221 C   0  0  0  0  0  0  0  0  0  0  0  0
  -17.5233   14.5475   23.6880 H   0  0  0  0  0  0  0  0  0  0  0  0
  -19.2616   14.7189   24.0538 H   0  0  0  0  0  0  0  0  0  0  0  0
  -18.4585   13.1199   24.1475 H   0  0  0  0  0  0  0  0  0  0  0  0
  -19.1244   12.4558   26.6257 C   0  0  0  0  0  0  0  0  0  0  0  0
  -20.3866   12.3794   27.1347 C   0  0  0  0  0  0  0  0  0  0  0  0
  -20.9480   13.0634   27.7163 H   0  0  0  0  0  0  0  0  0  0  0  0
  -20.8720   11.1879   26.7472 N   0  0  0  0  0  0  0  0  0  0  0  0
  -21.8176   10.8278   26.9778 H   0  0  0  0  0  0  0  0  0  0  0  0
  -19.9760   10.4890   25.9984 N   0  0  0  0  0  0  0  0  0  0  0  0
  -18.9316   11.2641   25.9234 C   0  0  0  0  0  0  0  0  0  0  0  0
  -18.0567   11.0019   25.3821 H   0  0  0  0  0  0  0  0  0  0  0  0
  1  2  2  0
  2  3  1  0
  2 12  1  0
  3  4  1  0
  3  8  1  0
  4  5  1  0
  4  6  1  0
  4  7  1  0
  8  9  1  0
  8 10  1  0
  8 11  1  0
 12 13  2  0
 12 18  1  0
 13 14  1  0
 13 15  1  0
 15 16  1  0
 15 17  1  0
 17 18  2  0
 18 19  1  0
M  END
$$$$
