
     RDKit          3D

 23 23  0  0  0  0  0  0  0  0999 V2000
  -25.9423   13.7967   28.0539 Cl  0  0  0  0  0  0  0  0  0  0  0  0
  -24.2456   13.5526   27.8910 C   0  0  0  0  0  0  0  0  0  0  0  0
  -23.3147   13.8815   28.8893 C   0  0  0  0  0  0  0  0  0  0  0  0
  -23.6365   14.4735   30.2048 C   0  0  0  0  0  0  0  0  0  0  0  0
  -23.0336   15.3374   30.8239 O   0  0  0  0  0  0  0  0  0  0  0  0
  -24.7424   14.0230   30.8487 N   0  0  0  0  0  0  0  0  0  0  0  0
  -24.9703   14.4240   31.7665 H   0  0  0  0  0  0  0  0  0  0  0  0
  -25.3197   13.2900   30.4171 H   0  0  0  0  0  0  0  0  0  0  0  0
  -22.0011   13.6421   28.6479 N   0  0  0  0  0  0  0  0  0  0  0  0
  -21.6093   13.1135   27.4988 C   0  0  0  0  0  0  0  0  0  0  0  0
  -20.1377   12.8681   27.2812 C   0  0  0  0  0  0  0  0  0  0  0  0
  -19.7012   12.5312   28.2300 H   0  0  0  0  0  0  0  0  0  0  0  0
  -19.9150   11.7659   26.2472 C   0  0  0  0  0  0  0  0  0  0  0  0
  -20.3068   12.0473   25.2625 H   0  0  0  0  0  0  0  0  0  0  0  0
  -20.4147   10.8383   26.5493 H   0  0  0  0  0  0  0  0  0  0  0  0
  -18.8471   11.5510   26.1341 H   0  0  0  0  0  0  0  0  0  0  0  0
  -19.4252   14.1574   26.8727 C   0  0  0  0  0  0  0  0  0  0  0  0
  -19.7951   14.5391   25.9145 H   0  0  0  0  0  0  0  0  0  0  0  0
  -18.3473   13.9887   26.7725 H   0  0  0  0  0  0  0  0  0  0  0  0
  -19.5745   14.9419   27.6223 H   0  0  0  0  0  0  0  0  0  0  0  0
  -22.4777   12.7938   26.5348 N   0  0  0  0  0  0  0  0  0  0  0  0
  -23.7700   13.0008   26.7073 C   0  0  0  0  0  0  0  0  0  0  0  0
  -24.4428   12.7400   25.9294 H   0  0  0  0  0  0  0  0  0  0  0  0
  1  2  1  0
  2  3  1  0
  2 22  2  0
  3  4  1  0
  3  9  2  0
  4  5  2  0
  4  6  1  0
  6  7  1  0
  6  8  1  0
  9 10  1  0
 10 11  1  0
 10 21  2  0
 11 12  1  0
 11 13  1  0
 11 17  1  0
 13 14  1  0
 13 15  1  0
 13 16  1  0
 17 18  1  0
 17 19  1  0
 17 20  1  0
 21 22  1  0
 22 23  1  0
M  END
$$$$
