
     RDKit          3D

 27 28  0  0  0  0  0  0  0  0999 V2000
  -20.0812   10.3329   25.8291 F   0  0  0  0  0  0  0  0  0  0  0  0
  -19.9130   11.6008   26.2403 C   0  0  0  0  0  0  0  0  0  0  0  0
  -20.8668   12.1865   27.0833 C   0  0  0  0  0  0  0  0  0  0  0  0
  -21.9636   11.4267   27.4661 N   0  0  0  0  0  0  0  0  0  0  0  0
  -22.1484   10.5829   26.9316 H   0  0  0  0  0  0  0  0  0  0  0  0
  -22.8603   11.7356   28.5618 C   0  0  0  0  0  0  0  0  0  0  0  0
  -23.3140   10.8090   28.9359 H   0  0  0  0  0  0  0  0  0  0  0  0
  -22.2811   12.1639   29.3901 H   0  0  0  0  0  0  0  0  0  0  0  0
  -23.9687   12.6821   28.2127 C   0  0  0  0  0  0  0  0  0  0  0  0
  -24.8715   13.2375   29.0589 C   0  0  0  0  0  0  0  0  0  0  0  0
  -25.0780   13.1173   30.5209 C   0  0  0  0  0  0  0  0  0  0  0  0
  -24.1216   13.0230   31.0431 H   0  0  0  0  0  0  0  0  0  0  0  0
  -25.6808   12.2318   30.7459 H   0  0  0  0  0  0  0  0  0  0  0  0
  -25.5932   13.9955   30.9244 H   0  0  0  0  0  0  0  0  0  0  0  0
  -25.6645   14.0050   28.2738 N   0  0  0  0  0  0  0  0  0  0  0  0
  -26.4665   14.5699   28.6115 H   0  0  0  0  0  0  0  0  0  0  0  0
  -25.3005   13.9600   26.9679 N   0  0  0  0  0  0  0  0  0  0  0  0
  -24.2763   13.1542   26.9407 C   0  0  0  0  0  0  0  0  0  0  0  0
  -23.7618   12.9031   26.0482 H   0  0  0  0  0  0  0  0  0  0  0  0
  -20.6797   13.5079   27.4998 C   0  0  0  0  0  0  0  0  0  0  0  0
  -21.3993   13.9757   28.1186 H   0  0  0  0  0  0  0  0  0  0  0  0
  -19.5490   14.2099   27.0811 C   0  0  0  0  0  0  0  0  0  0  0  0
  -19.4071   15.2124   27.3955 H   0  0  0  0  0  0  0  0  0  0  0  0
  -18.6038   13.6096   26.2451 C   0  0  0  0  0  0  0  0  0  0  0  0
  -17.7507   14.1542   25.9320 H   0  0  0  0  0  0  0  0  0  0  0  0
  -18.7880   12.2941   25.8193 C   0  0  0  0  0  0  0  0  0  0  0  0
  -18.0813   11.8267   25.1820 H   0  0  0  0  0  0  0  0  0  0  0  0
  1  2  1  0
  2  3  1  0
  2 26  2  0
  3  4  1  0
  3 20  2  0
  4  5  1  0
  4  6  1  0
  6  7  1  0
  6  8  1  0
  6  9  1  0
  9 10  2  0
  9 18  1  0
 10 11  1  0
 10 15  1  0
 11 12  1  0
 11 13  1  0
 11 14  1  0
 15 16  1  0
 15 17  1  0
 17 18  2  0
 18 19  1  0
 20 21  1  0
 20 22  1  0
 22 23  1  0
 22 24  2  0
 24 25  1  0
 24 26  1  0
 26 27  1  0
M  END
$$$$
