
     RDKit          3D

 29 30  0  0  0  0  0  0  0  0999 V2000
  -22.2475   10.2888   26.9919 O   0  0  0  0  0  0  0  0  0  0  0  0
  -21.7020   11.1525   27.6589 C   0  0  0  0  0  0  0  0  0  0  0  0
  -22.2284   11.5113   28.8318 N   0  0  0  0  0  0  0  0  0  0  0  0
  -21.5537   11.5601   29.6032 H   0  0  0  0  0  0  0  0  0  0  0  0
  -22.9853   12.1985   28.7976 H   0  0  0  0  0  0  0  0  0  0  0  0
  -20.5474   11.7898   27.2873 N   0  0  0  0  0  0  0  0  0  0  0  0
  -19.7958   11.2836   26.1354 C   0  0  0  0  0  0  0  0  0  0  0  0
  -20.3012   10.4311   25.6697 H   0  0  0  0  0  0  0  0  0  0  0  0
  -18.8315   10.9256   26.5160 H   0  0  0  0  0  0  0  0  0  0  0  0
  -19.5745   12.3848   25.0988 C   0  0  0  0  0  0  0  0  0  0  0  0
  -20.5378   12.7101   24.6877 H   0  0  0  0  0  0  0  0  0  0  0  0
  -18.9818   11.9972   24.2655 H   0  0  0  0  0  0  0  0  0  0  0  0
  -18.9561   13.5750   25.7024 N   0  0  0  0  0  0  0  0  0  0  0  0
  -17.8098   14.1298   25.1418 C   0  0  0  0  0  0  0  0  0  0  0  0
  -17.1964   13.4247   24.3399 O   0  0  0  0  0  0  0  0  0  0  0  0
  -17.3659   15.4607   25.4918 C   0  0  0  0  0  0  0  0  0  0  0  0
  -16.0391   15.7275   25.6854 O   0  0  0  0  0  0  0  0  0  0  0  0
  -15.9214   17.0222   26.0542 C   0  0  0  0  0  0  0  0  0  0  0  0
  -14.9657   17.4397   26.2438 H   0  0  0  0  0  0  0  0  0  0  0  0
  -17.1481   17.5893   26.1193 C   0  0  0  0  0  0  0  0  0  0  0  0
  -17.3588   18.5925   26.3848 H   0  0  0  0  0  0  0  0  0  0  0  0
  -18.0840   16.5854   25.7739 C   0  0  0  0  0  0  0  0  0  0  0  0
  -19.1405   16.6666   25.7343 H   0  0  0  0  0  0  0  0  0  0  0  0
  -19.6540   14.0860   26.8903 C   0  0  0  0  0  0  0  0  0  0  0  0
  -19.0716   14.8550   27.4008 H   0  0  0  0  0  0  0  0  0  0  0  0
  -20.5910   14.5336   26.5395 H   0  0  0  0  0  0  0  0  0  0  0  0
  -19.9496   12.9761   27.9162 C   0  0  0  0  0  0  0  0  0  0  0  0
  -20.5901   13.3917   28.6972 H   0  0  0  0  0  0  0  0  0  0  0  0
  -19.0158   12.6443   28.3861 H   0  0  0  0  0  0  0  0  0  0  0  0
  1  2  2  0
  2  3  1  0
  2  6  1  0
  3  4  1  0
  3  5  1  0
  6  7  1  0
  6 27  1  0
  7  8  1  0
  7  9  1  0
  7 10  1  0
 10 11  1  0
 10 12  1  0
 10 13  1  0
 13 14  1  0
 13 24  1  0
 14 15  2  0
 14 16  1  0
 16 17  1  0
 16 22  2  0
 17 18  1  0
 18 19  1  0
 18 20  2  0
 20 21  1  0
 20 22  1  0
 22 23  1  0
 24 25  1  0
 24 26  1  0
 24 27  1  0
 27 28  1  0
 27 29  1  0
M  END
$$$$
