
     RDKit          3D

 24 24  0  0  0  0  0  0  0  0999 V2000
  -20.6688   14.1208   28.0729 O   0  0  0  0  0  0  0  0  0  0  0  0
  -21.2692   13.0964   27.7727 C   0  0  0  0  0  0  0  0  0  0  0  0
  -20.7253   12.0698   27.0643 O   0  0  0  0  0  0  0  0  0  0  0  0
  -19.4487   12.3535   26.4777 C   0  0  0  0  0  0  0  0  0  0  0  0
  -19.5241   13.2414   25.8410 H   0  0  0  0  0  0  0  0  0  0  0  0
  -18.7103   12.5262   27.2684 H   0  0  0  0  0  0  0  0  0  0  0  0
  -19.0361   11.1573   25.6426 C   0  0  0  0  0  0  0  0  0  0  0  0
  -19.7783   10.9568   24.8622 H   0  0  0  0  0  0  0  0  0  0  0  0
  -18.9757   10.2573   26.2639 H   0  0  0  0  0  0  0  0  0  0  0  0
  -18.0641   11.3269   25.1706 H   0  0  0  0  0  0  0  0  0  0  0  0
  -22.5746   12.8762   28.1289 N   0  0  0  0  0  0  0  0  0  0  0  0
  -23.3214   13.8614   28.9102 C   0  0  0  0  0  0  0  0  0  0  0  0
  -23.4627   13.4240   29.9054 H   0  0  0  0  0  0  0  0  0  0  0  0
  -22.7571   14.7924   29.0248 H   0  0  0  0  0  0  0  0  0  0  0  0
  -24.6800   14.1382   28.2663 C   0  0  0  0  0  0  0  0  0  0  0  0
  -24.5650   14.6459   27.3009 H   0  0  0  0  0  0  0  0  0  0  0  0
  -25.2792   14.7837   28.9167 H   0  0  0  0  0  0  0  0  0  0  0  0
  -25.4097   12.9185   28.0682 O   0  0  0  0  0  0  0  0  0  0  0  0
  -24.6891   12.0289   27.2017 C   0  0  0  0  0  0  0  0  0  0  0  0
  -25.2950   11.1268   27.0708 H   0  0  0  0  0  0  0  0  0  0  0  0
  -24.5754   12.5038   26.2194 H   0  0  0  0  0  0  0  0  0  0  0  0
  -23.3292   11.6650   27.7994 C   0  0  0  0  0  0  0  0  0  0  0  0
  -22.7791   11.0147   27.1137 H   0  0  0  0  0  0  0  0  0  0  0  0
  -23.4690   11.1233   28.7419 H   0  0  0  0  0  0  0  0  0  0  0  0
  1  2  2  0
  2  3  1  0
  2 11  1  0
  3  4  1  0
  4  5  1  0
  4  6  1  0
  4  7  1  0
  7  8  1  0
  7  9  1  0
  7 10  1  0
 11 12  1  0
 11 22  1  0
 12 13  1  0
 12 14  1  0
 12 15  1  0
 15 16  1  0
 15 17  1  0
 15 18  1  0
 18 19  1  0
 19 20  1  0
 19 21  1  0
 19 22  1  0
 22 23  1  0
 22 24  1  0
M  END
$$$$
