
     RDKit          3D

 29 30  0  0  0  0  0  0  0  0999 V2000
  -18.6596   12.4570   25.2638 C   0  0  0  0  0  0  0  0  0  0  0  0
  -19.4880   11.9447   24.7622 H   0  0  0  0  0  0  0  0  0  0  0  0
  -18.0929   11.7135   25.8371 H   0  0  0  0  0  0  0  0  0  0  0  0
  -17.9793   12.8488   24.4997 H   0  0  0  0  0  0  0  0  0  0  0  0
  -19.1597   13.5816   26.1646 C   0  0  0  0  0  0  0  0  0  0  0  0
  -18.0345   14.2218   26.7672 O   0  0  0  0  0  0  0  0  0  0  0  0
  -17.4765   14.5629   26.0499 H   0  0  0  0  0  0  0  0  0  0  0  0
  -20.1164   13.0812   27.1999 C   0  0  0  0  0  0  0  0  0  0  0  0
  -19.7835   12.4944   28.4162 C   0  0  0  0  0  0  0  0  0  0  0  0
  -18.8007   12.3185   28.7694 H   0  0  0  0  0  0  0  0  0  0  0  0
  -20.8495   12.1750   29.0963 N   0  0  0  0  0  0  0  0  0  0  0  0
  -21.8976   12.5596   28.3118 N   0  0  0  0  0  0  0  0  0  0  0  0
  -23.2622   12.3618   28.7387 C   0  0  0  0  0  0  0  0  0  0  0  0
  -23.4606   11.2823   28.7085 H   0  0  0  0  0  0  0  0  0  0  0  0
  -23.5680   12.8836   30.1413 C   0  0  0  0  0  0  0  0  0  0  0  0
  -23.1552   12.2391   30.9245 H   0  0  0  0  0  0  0  0  0  0  0  0
  -23.1585   13.8897   30.2949 H   0  0  0  0  0  0  0  0  0  0  0  0
  -25.0917   12.9409   30.1890 C   0  0  0  0  0  0  0  0  0  0  0  0
  -25.4933   12.0194   30.6260 H   0  0  0  0  0  0  0  0  0  0  0  0
  -25.4392   13.7742   30.8078 H   0  0  0  0  0  0  0  0  0  0  0  0
  -25.5609   13.0728   28.7396 C   0  0  0  0  0  0  0  0  0  0  0  0
  -26.1539   13.9797   28.5850 H   0  0  0  0  0  0  0  0  0  0  0  0
  -26.1960   12.2183   28.4762 H   0  0  0  0  0  0  0  0  0  0  0  0
  -24.3008   13.0815   27.8802 C   0  0  0  0  0  0  0  0  0  0  0  0
  -24.0039   14.1176   27.6739 H   0  0  0  0  0  0  0  0  0  0  0  0
  -24.4570   12.5877   26.9153 H   0  0  0  0  0  0  0  0  0  0  0  0
  -21.4688   13.1138   27.1585 C   0  0  0  0  0  0  0  0  0  0  0  0
  -22.1308   13.4753   26.4143 H   0  0  0  0  0  0  0  0  0  0  0  0
  -19.6628   14.3375   25.5494 H   0  0  0  0  0  0  0  0  0  0  0  0
  1  2  1  0
  1  3  1  0
  1  4  1  0
  1  5  1  0
  5  6  1  0
  5  8  1  0
  5 29  1  0
  6  7  1  0
  8  9  1  0
  8 27  2  0
  9 10  1  0
  9 11  2  0
 11 12  1  0
 12 13  1  0
 12 27  1  0
 13 14  1  0
 13 15  1  0
 13 24  1  0
 15 16  1  0
 15 17  1  0
 15 18  1  0
 18 19  1  0
 18 20  1  0
 18 21  1  0
 21 22  1  0
 21 23  1  0
 21 24  1  0
 24 25  1  0
 24 26  1  0
 27 28  1  0
M  END
$$$$
