
     RDKit          3D

 23 23  0  0  0  0  0  0  0  0999 V2000
  -17.8405   13.3756   23.6435 S   0  0  0  0  0  0  0  0  0  0  0  0
  -18.5140   12.3520   22.8605 O   0  0  0  0  0  0  0  0  0  0  0  0
  -17.5696   14.6827   23.0761 O   0  0  0  0  0  0  0  0  0  0  0  0
  -16.3076   12.6907   24.2155 C   0  0  0  0  0  0  0  0  0  0  0  0
  -16.5096   11.7563   24.7432 H   0  0  0  0  0  0  0  0  0  0  0  0
  -15.8155   13.4094   24.8737 H   0  0  0  0  0  0  0  0  0  0  0  0
  -15.6779   12.4960   23.3454 H   0  0  0  0  0  0  0  0  0  0  0  0
  -18.7576   13.6207   25.1383 C   0  0  0  0  0  0  0  0  0  0  0  0
  -18.5834   14.7453   25.9635 C   0  0  0  0  0  0  0  0  0  0  0  0
  -17.6438   15.7136   25.6188 N   0  0  0  0  0  0  0  0  0  0  0  0
  -17.5287   15.9150   24.6150 H   0  0  0  0  0  0  0  0  0  0  0  0
  -16.8007   16.4322   26.5433 C   0  0  0  0  0  0  0  0  0  0  0  0
  -17.3984   16.9824   27.2779 H   0  0  0  0  0  0  0  0  0  0  0  0
  -16.1951   17.1604   25.9946 H   0  0  0  0  0  0  0  0  0  0  0  0
  -16.1157   15.7549   27.0625 H   0  0  0  0  0  0  0  0  0  0  0  0
  -19.3710   14.9044   27.1115 C   0  0  0  0  0  0  0  0  0  0  0  0
  -19.2664   15.7617   27.7217 H   0  0  0  0  0  0  0  0  0  0  0  0
  -20.2999   13.9324   27.4581 C   0  0  0  0  0  0  0  0  0  0  0  0
  -20.8891   14.0496   28.3314 H   0  0  0  0  0  0  0  0  0  0  0  0
  -20.4576   12.8017   26.6635 C   0  0  0  0  0  0  0  0  0  0  0  0
  -21.1626   12.0565   26.9346 H   0  0  0  0  0  0  0  0  0  0  0  0
  -19.6926   12.6515   25.5107 C   0  0  0  0  0  0  0  0  0  0  0  0
  -19.8215   11.7894   24.9065 H   0  0  0  0  0  0  0  0  0  0  0  0
  1  2  2  0
  1  3  2  0
  1  4  1  0
  1  8  1  0
  4  5  1  0
  4  6  1  0
  4  7  1  0
  8  9  1  0
  8 22  2  0
  9 10  1  0
  9 16  2  0
 10 11  1  0
 10 12  1  0
 12 13  1  0
 12 14  1  0
 12 15  1  0
 16 17  1  0
 16 18  1  0
 18 19  1  0
 18 20  2  0
 20 21  1  0
 20 22  1  0
 22 23  1  0
M  END
$$$$
