
     RDKit          3D

 35 37  0  0  0  0  0  0  0  0999 V2000
  -27.6914   14.2883   31.6524 F   0  0  0  0  0  0  0  0  0  0  0  0
  -26.5879   13.8722   31.0150 C   0  0  0  0  0  0  0  0  0  0  0  0
  -25.7444   12.9706   31.6519 C   0  0  0  0  0  0  0  0  0  0  0  0
  -25.9768   12.6221   32.6244 H   0  0  0  0  0  0  0  0  0  0  0  0
  -24.5978   12.5386   30.9920 C   0  0  0  0  0  0  0  0  0  0  0  0
  -23.9553   11.8539   31.4726 H   0  0  0  0  0  0  0  0  0  0  0  0
  -24.3033   13.0231   29.7049 C   0  0  0  0  0  0  0  0  0  0  0  0
  -23.1511   12.6089   29.0484 N   0  0  0  0  0  0  0  0  0  0  0  0
  -22.2058   13.5530   28.4337 C   0  0  0  0  0  0  0  0  0  0  0  0
  -22.5477   14.5922   28.4688 H   0  0  0  0  0  0  0  0  0  0  0  0
  -21.2708   13.5163   29.0066 H   0  0  0  0  0  0  0  0  0  0  0  0
  -21.9206   13.1522   26.9775 C   0  0  0  0  0  0  0  0  0  0  0  0
  -21.1592   13.8126   26.5560 H   0  0  0  0  0  0  0  0  0  0  0  0
  -22.8272   13.2685   26.3724 H   0  0  0  0  0  0  0  0  0  0  0  0
  -21.5244   11.7404   26.8858 N   0  0  0  0  0  0  0  0  0  0  0  0
  -20.3744   11.2841   26.2861 C   0  0  0  0  0  0  0  0  0  0  0  0
  -20.1617   10.0858   26.2630 O   0  0  0  0  0  0  0  0  0  0  0  0
  -19.4310   12.2521   25.6827 C   0  0  0  0  0  0  0  0  0  0  0  0
  -19.0316   12.9763   26.3861 H   0  0  0  0  0  0  0  0  0  0  0  0
  -19.6735   12.7758   24.2846 C   0  0  0  0  0  0  0  0  0  0  0  0
  -20.5346   12.4059   23.7392 H   0  0  0  0  0  0  0  0  0  0  0  0
  -19.4352   13.8134   24.0849 H   0  0  0  0  0  0  0  0  0  0  0  0
  -18.5414   11.8276   24.5373 C   0  0  0  0  0  0  0  0  0  0  0  0
  -18.6372   10.8185   24.1516 H   0  0  0  0  0  0  0  0  0  0  0  0
  -17.5326   12.2216   24.5062 H   0  0  0  0  0  0  0  0  0  0  0  0
  -22.4807   10.8096   27.4985 C   0  0  0  0  0  0  0  0  0  0  0  0
  -23.3986   10.8622   26.9018 H   0  0  0  0  0  0  0  0  0  0  0  0
  -22.1207    9.7769   27.4554 H   0  0  0  0  0  0  0  0  0  0  0  0
  -22.7829   11.1868   28.9595 C   0  0  0  0  0  0  0  0  0  0  0  0
  -21.8977   11.0119   29.5820 H   0  0  0  0  0  0  0  0  0  0  0  0
  -23.5792   10.5245   29.3166 H   0  0  0  0  0  0  0  0  0  0  0  0
  -25.1852   13.9174   29.0764 C   0  0  0  0  0  0  0  0  0  0  0  0
  -24.9931   14.2486   28.0903 H   0  0  0  0  0  0  0  0  0  0  0  0
  -26.3300   14.3512   29.7381 C   0  0  0  0  0  0  0  0  0  0  0  0
  -27.0016   15.0271   29.2778 H   0  0  0  0  0  0  0  0  0  0  0  0
  1  2  1  0
  2  3  1  0
  2 34  2  0
  3  4  1  0
  3  5  2  0
  5  6  1  0
  5  7  1  0
  7  8  1  0
  7 32  2  0
  8  9  1  0
  8 29  1  0
  9 10  1  0
  9 11  1  0
  9 12  1  0
 12 13  1  0
 12 14  1  0
 12 15  1  0
 15 16  1  0
 15 26  1  0
 16 17  2  0
 16 18  1  0
 18 19  1  0
 18 20  1  0
 18 23  1  0
 20 21  1  0
 20 22  1  0
 20 23  1  0
 23 24  1  0
 23 25  1  0
 26 27  1  0
 26 28  1  0
 26 29  1  0
 29 30  1  0
 29 31  1  0
 32 33  1  0
 32 34  1  0
 34 35  1  0
M  END
$$$$
