
     RDKit          3D

 18 18  0  0  0  0  0  0  0  0999 V2000
  -19.6220   17.8395   26.3380 O   0  0  0  0  0  0  0  0  0  0  0  0
  -18.6908   17.8547   27.1296 C   0  0  0  0  0  0  0  0  0  0  0  0
  -18.8230   18.5601   28.2842 N   0  0  0  0  0  0  0  0  0  0  0  0
  -18.0686   18.5027   28.9763 H   0  0  0  0  0  0  0  0  0  0  0  0
  -19.9945   19.3583   28.5870 C   0  0  0  0  0  0  0  0  0  0  0  0
  -20.0928   20.1350   27.8204 H   0  0  0  0  0  0  0  0  0  0  0  0
  -20.8718   18.7061   28.5208 H   0  0  0  0  0  0  0  0  0  0  0  0
  -19.9050   19.9852   29.9644 C   0  0  0  0  0  0  0  0  0  0  0  0
  -19.0300   20.6391   30.0403 H   0  0  0  0  0  0  0  0  0  0  0  0
  -19.8160   19.2168   30.7396 H   0  0  0  0  0  0  0  0  0  0  0  0
  -20.7988   20.5809   30.1726 H   0  0  0  0  0  0  0  0  0  0  0  0
  -17.4660   17.1406   26.9158 C   0  0  0  0  0  0  0  0  0  0  0  0
  -16.3665   17.3975   27.6231 N   0  0  0  0  0  0  0  0  0  0  0  0
  -16.2875   18.1141   28.3715 H   0  0  0  0  0  0  0  0  0  0  0  0
  -15.3605   16.6047   27.2415 N   0  0  0  0  0  0  0  0  0  0  0  0
  -15.8116   15.8246   26.2797 N   0  0  0  0  0  0  0  0  0  0  0  0
  -17.0981   16.1457   26.0764 C   0  0  0  0  0  0  0  0  0  0  0  0
  -17.7113   15.6695   25.3546 H   0  0  0  0  0  0  0  0  0  0  0  0
  1  2  2  0
  2  3  1  0
  2 12  1  0
  3  4  1  0
  3  5  1  0
  5  6  1  0
  5  7  1  0
  5  8  1  0
  8  9  1  0
  8 10  1  0
  8 11  1  0
 12 13  1  0
 12 17  2  0
 13 14  1  0
 13 15  1  0
 15 16  2  0
 16 17  1  0
 17 18  1  0
M  END
$$$$
