
     RDKit          3D

 30 31  0  0  0  0  0  0  0  0999 V2000
  -18.2261   14.5610   26.0155 N   0  0  0  0  0  0  0  0  0  0  0  0
  -18.4602   13.4922   27.0057 C   0  0  0  0  0  0  0  0  0  0  0  0
  -18.1282   12.5184   26.6352 H   0  0  0  0  0  0  0  0  0  0  0  0
  -17.8388   13.6665   27.8932 H   0  0  0  0  0  0  0  0  0  0  0  0
  -19.9170   13.4655   27.4431 C   0  0  0  0  0  0  0  0  0  0  0  0
  -20.5994   13.3347   26.5990 H   0  0  0  0  0  0  0  0  0  0  0  0
  -20.1923   14.4005   27.9433 H   0  0  0  0  0  0  0  0  0  0  0  0
  -20.0856   12.6452   28.1486 H   0  0  0  0  0  0  0  0  0  0  0  0
  -18.6916   14.2081   24.6593 C   0  0  0  0  0  0  0  0  0  0  0  0
  -19.6667   13.7103   24.6940 H   0  0  0  0  0  0  0  0  0  0  0  0
  -18.8565   15.1164   24.0655 H   0  0  0  0  0  0  0  0  0  0  0  0
  -17.6697   13.3339   23.9458 C   0  0  0  0  0  0  0  0  0  0  0  0
  -17.5006   12.3942   24.4800 H   0  0  0  0  0  0  0  0  0  0  0  0
  -16.7058   13.8452   23.8600 H   0  0  0  0  0  0  0  0  0  0  0  0
  -18.0180   13.0929   22.9367 H   0  0  0  0  0  0  0  0  0  0  0  0
  -17.6080   15.8251   26.3221 C   0  0  0  0  0  0  0  0  0  0  0  0
  -18.3276   16.8899   26.9772 N   0  0  0  0  0  0  0  0  0  0  0  0
  -19.6070   16.9362   27.4094 N   0  0  0  0  0  0  0  0  0  0  0  0
  -19.6894   18.1295   27.9118 C   0  0  0  0  0  0  0  0  0  0  0  0
  -20.5862   18.4965   28.3476 H   0  0  0  0  0  0  0  0  0  0  0  0
  -18.5778   18.8699   27.8478 N   0  0  0  0  0  0  0  0  0  0  0  0
  -17.7193   18.0878   27.2598 C   0  0  0  0  0  0  0  0  0  0  0  0
  -16.3991   18.3561   26.9405 N   0  0  0  0  0  0  0  0  0  0  0  0
  -15.7135   17.4309   26.3520 C   0  0  0  0  0  0  0  0  0  0  0  0
  -14.2769   17.6971   25.9952 C   0  0  0  0  0  0  0  0  0  0  0  0
  -13.8213   16.8379   25.4975 H   0  0  0  0  0  0  0  0  0  0  0  0
  -13.7140   17.9187   26.9063 H   0  0  0  0  0  0  0  0  0  0  0  0
  -14.2260   18.5615   25.3262 H   0  0  0  0  0  0  0  0  0  0  0  0
  -16.2898   16.1036   26.0111 C   0  0  0  0  0  0  0  0  0  0  0  0
  -15.6921   15.3862   25.5225 H   0  0  0  0  0  0  0  0  0  0  0  0
  1  2  1  0
  1  9  1  0
  1 16  1  0
  2  3  1  0
  2  4  1  0
  2  5  1  0
  5  6  1  0
  5  7  1  0
  5  8  1  0
  9 10  1  0
  9 11  1  0
  9 12  1  0
 12 13  1  0
 12 14  1  0
 12 15  1  0
 16 17  1  0
 16 29  2  0
 17 18  1  0
 17 22  1  0
 18 19  2  0
 19 20  1  0
 19 21  1  0
 21 22  2  0
 22 23  1  0
 23 24  2  0
 24 25  1  0
 24 29  1  0
 25 26  1  0
 25 27  1  0
 25 28  1  0
 29 30  1  0
M  END
$$$$
