
     RDKit          3D

 27 27  0  0  0  0  0  0  0  0999 V2000
  -18.3561   13.6401   24.7122 S   0  0  0  0  0  0  0  0  0  0  0  0
  -17.3703   12.6075   24.4787 O   0  0  0  0  0  0  0  0  0  0  0  0
  -19.0787   14.2679   23.6277 O   0  0  0  0  0  0  0  0  0  0  0  0
  -17.5882   14.8707   25.5720 N   0  0  0  0  0  0  0  0  0  0  0  0
  -17.0249   15.4726   24.9667 H   0  0  0  0  0  0  0  0  0  0  0  0
  -17.0817   14.5152   26.3866 H   0  0  0  0  0  0  0  0  0  0  0  0
  -19.5160   13.0547   25.8952 C   0  0  0  0  0  0  0  0  0  0  0  0
  -19.9571   11.7285   25.8644 C   0  0  0  0  0  0  0  0  0  0  0  0
  -19.5620   11.0619   25.1372 H   0  0  0  0  0  0  0  0  0  0  0  0
  -20.9128   11.2780   26.7678 C   0  0  0  0  0  0  0  0  0  0  0  0
  -21.2398   10.2694   26.7275 H   0  0  0  0  0  0  0  0  0  0  0  0
  -21.4482   12.1475   27.7161 C   0  0  0  0  0  0  0  0  0  0  0  0
  -22.5331   11.6794   28.6465 C   0  0  0  0  0  0  0  0  0  0  0  0
  -22.1745   11.6536   29.6829 H   0  0  0  0  0  0  0  0  0  0  0  0
  -22.8530   10.6610   28.3939 H   0  0  0  0  0  0  0  0  0  0  0  0
  -23.6805   12.5578   28.5702 N   0  0  0  0  0  0  0  0  0  0  0  0
  -23.7684   13.1385   27.7541 H   0  0  0  0  0  0  0  0  0  0  0  0
  -24.5967   12.6145   29.5270 C   0  0  0  0  0  0  0  0  0  0  0  0
  -24.5280   11.9251   30.5336 O   0  0  0  0  0  0  0  0  0  0  0  0
  -25.7249   13.5737   29.2758 C   0  0  0  0  0  0  0  0  0  0  0  0
  -25.3286   14.5636   29.0322 H   0  0  0  0  0  0  0  0  0  0  0  0
  -26.3354   13.2120   28.4435 H   0  0  0  0  0  0  0  0  0  0  0  0
  -26.3477   13.6533   30.1710 H   0  0  0  0  0  0  0  0  0  0  0  0
  -21.0216   13.4728   27.7463 C   0  0  0  0  0  0  0  0  0  0  0  0
  -21.4334   14.1464   28.4555 H   0  0  0  0  0  0  0  0  0  0  0  0
  -20.0657   13.9232   26.8412 C   0  0  0  0  0  0  0  0  0  0  0  0
  -19.7555   14.9389   26.8634 H   0  0  0  0  0  0  0  0  0  0  0  0
  1  2  2  0
  1  3  2  0
  1  4  1  0
  1  7  1  0
  4  5  1  0
  4  6  1  0
  7  8  1  0
  7 26  2  0
  8  9  1  0
  8 10  2  0
 10 11  1  0
 10 12  1  0
 12 13  1  0
 12 24  2  0
 13 14  1  0
 13 15  1  0
 13 16  1  0
 16 17  1  0
 16 18  1  0
 18 19  2  0
 18 20  1  0
 20 21  1  0
 20 22  1  0
 20 23  1  0
 24 25  1  0
 24 26  1  0
 26 27  1  0
M  END
$$$$
