
     RDKit          3D

 18 18  0  0  0  0  0  0  0  0999 V2000
  -21.1975   13.2621   28.4882 O   0  0  0  0  0  0  0  0  0  0  0  0
  -21.7370   12.9471   27.4289 C   0  0  0  0  0  0  0  0  0  0  0  0
  -20.9440   12.3940   26.4610 N   0  0  0  0  0  0  0  0  0  0  0  0
  -21.4181   12.0781   25.6031 H   0  0  0  0  0  0  0  0  0  0  0  0
  -19.5136   12.2211   26.6026 C   0  0  0  0  0  0  0  0  0  0  0  0
  -19.0469   13.2123   26.6176 H   0  0  0  0  0  0  0  0  0  0  0  0
  -19.3255   11.7447   27.5701 H   0  0  0  0  0  0  0  0  0  0  0  0
  -18.9374   11.3829   25.4784 C   0  0  0  0  0  0  0  0  0  0  0  0
  -17.8572   11.2640   25.6053 H   0  0  0  0  0  0  0  0  0  0  0  0
  -19.3931   10.3874   25.4596 H   0  0  0  0  0  0  0  0  0  0  0  0
  -19.1212   11.8532   24.5068 H   0  0  0  0  0  0  0  0  0  0  0  0
  -23.1387   13.0824   27.1179 C   0  0  0  0  0  0  0  0  0  0  0  0
  -23.6973   12.6301   25.9577 N   0  0  0  0  0  0  0  0  0  0  0  0
  -24.9752   12.9124   25.9975 N   0  0  0  0  0  0  0  0  0  0  0  0
  -25.2226   13.5311   27.1619 N   0  0  0  0  0  0  0  0  0  0  0  0
  -26.1667   13.8591   27.4388 H   0  0  0  0  0  0  0  0  0  0  0  0
  -24.1106   13.6506   27.8736 C   0  0  0  0  0  0  0  0  0  0  0  0
  -24.0770   14.1081   28.8285 H   0  0  0  0  0  0  0  0  0  0  0  0
  1  2  2  0
  2  3  1  0
  2 12  1  0
  3  4  1  0
  3  5  1  0
  5  6  1  0
  5  7  1  0
  5  8  1  0
  8  9  1  0
  8 10  1  0
  8 11  1  0
 12 13  1  0
 12 17  2  0
 13 14  2  0
 14 15  1  0
 15 16  1  0
 15 17  1  0
 17 18  1  0
M  END
$$$$
