
     RDKit          3D

 16 17  0  0  0  0  0  0  0  0999 V2000
  -20.8309   11.7645   27.2703 Br  0  0  0  0  0  0  0  0  0  0  0  0
  -19.8853   12.5986   25.8553 C   0  0  0  0  0  0  0  0  0  0  0  0
  -19.3854   13.9274   25.9302 C   0  0  0  0  0  0  0  0  0  0  0  0
  -18.6954   14.4318   24.8015 C   0  0  0  0  0  0  0  0  0  0  0  0
  -18.5105   13.6789   23.6790 N   0  0  0  0  0  0  0  0  0  0  0  0
  -18.9745   12.4636   23.6265 C   0  0  0  0  0  0  0  0  0  0  0  0
  -18.8146   11.9007   22.7393 H   0  0  0  0  0  0  0  0  0  0  0  0
  -19.6731   11.8842   24.7029 C   0  0  0  0  0  0  0  0  0  0  0  0
  -20.0310   10.8909   24.6109 H   0  0  0  0  0  0  0  0  0  0  0  0
  -18.1817   15.6957   24.7839 N   0  0  0  0  0  0  0  0  0  0  0  0
  -18.3215   16.4697   25.8240 C   0  0  0  0  0  0  0  0  0  0  0  0
  -17.9114   17.4488   25.7814 H   0  0  0  0  0  0  0  0  0  0  0  0
  -18.9952   16.0445   26.9888 C   0  0  0  0  0  0  0  0  0  0  0  0
  -19.0815   16.7116   27.8077 H   0  0  0  0  0  0  0  0  0  0  0  0
  -19.5285   14.7825   27.0535 C   0  0  0  0  0  0  0  0  0  0  0  0
  -20.0349   14.4611   27.9268 H   0  0  0  0  0  0  0  0  0  0  0  0
  1  2  1  0
  2  3  1  0
  2  8  2  0
  3  4  1  0
  3 15  2  0
  4  5  1  0
  4 10  2  0
  5  6  2  0
  6  7  1  0
  6  8  1  0
  8  9  1  0
 10 11  1  0
 11 12  1  0
 11 13  2  0
 13 14  1  0
 13 15  1  0
 15 16  1  0
M  END
$$$$
