
     RDKit          3D

 23 23  0  0  0  0  0  0  0  0999 V2000
  -18.5139   11.8829   28.3643 Cl  0  0  0  0  0  0  0  0  0  0  0  0
  -20.1330   12.3653   28.0322 C   0  0  0  0  0  0  0  0  0  0  0  0
  -20.5547   12.8653   26.7897 C   0  0  0  0  0  0  0  0  0  0  0  0
  -19.6967   13.0507   25.6006 C   0  0  0  0  0  0  0  0  0  0  0  0
  -18.5868   13.5568   25.5286 O   0  0  0  0  0  0  0  0  0  0  0  0
  -20.1684   12.6163   24.4050 N   0  0  0  0  0  0  0  0  0  0  0  0
  -19.5817   12.7469   23.5720 H   0  0  0  0  0  0  0  0  0  0  0  0
  -21.0974   12.1793   24.3526 H   0  0  0  0  0  0  0  0  0  0  0  0
  -21.8583   13.2127   26.6449 N   0  0  0  0  0  0  0  0  0  0  0  0
  -22.7089   13.0844   27.6516 C   0  0  0  0  0  0  0  0  0  0  0  0
  -24.1466   13.4853   27.4379 C   0  0  0  0  0  0  0  0  0  0  0  0
  -24.1724   14.5540   27.1900 H   0  0  0  0  0  0  0  0  0  0  0  0
  -24.7587   12.7192   26.2667 C   0  0  0  0  0  0  0  0  0  0  0  0
  -24.7881   11.6399   26.4579 H   0  0  0  0  0  0  0  0  0  0  0  0
  -24.1796   12.8769   25.3495 H   0  0  0  0  0  0  0  0  0  0  0  0
  -25.7842   13.0542   26.0784 H   0  0  0  0  0  0  0  0  0  0  0  0
  -24.9636   13.2834   28.7141 C   0  0  0  0  0  0  0  0  0  0  0  0
  -25.0026   12.2286   29.0081 H   0  0  0  0  0  0  0  0  0  0  0  0
  -25.9932   13.6303   28.5732 H   0  0  0  0  0  0  0  0  0  0  0  0
  -24.5309   13.8448   29.5492 H   0  0  0  0  0  0  0  0  0  0  0  0
  -22.3292   12.6119   28.8425 N   0  0  0  0  0  0  0  0  0  0  0  0
  -21.0750   12.2553   29.0483 C   0  0  0  0  0  0  0  0  0  0  0  0
  -20.7941   11.8826   30.0011 H   0  0  0  0  0  0  0  0  0  0  0  0
  1  2  1  0
  2  3  1  0
  2 22  2  0
  3  4  1  0
  3  9  2  0
  4  5  2  0
  4  6  1  0
  6  7  1  0
  6  8  1  0
  9 10  1  0
 10 11  1  0
 10 21  2  0
 11 12  1  0
 11 13  1  0
 11 17  1  0
 13 14  1  0
 13 15  1  0
 13 16  1  0
 17 18  1  0
 17 19  1  0
 17 20  1  0
 21 22  1  0
 22 23  1  0
M  END
$$$$
