
     RDKit          3D

 28 29  0  0  0  0  0  0  0  0999 V2000
  -16.8129   11.3696   23.9838 O   0  0  0  0  0  0  0  0  0  0  0  0
  -17.6266   12.2782   24.0055 C   0  0  0  0  0  0  0  0  0  0  0  0
  -17.3014   13.4520   23.5016 N   0  0  0  0  0  0  0  0  0  0  0  0
  -16.3747   13.5356   23.1176 H   0  0  0  0  0  0  0  0  0  0  0  0
  -17.9482   14.2210   23.5087 H   0  0  0  0  0  0  0  0  0  0  0  0
  -19.0151   12.1636   24.5761 C   0  0  0  0  0  0  0  0  0  0  0  0
  -19.5378   13.1136   24.4183 H   0  0  0  0  0  0  0  0  0  0  0  0
  -19.5557   11.3930   24.0134 H   0  0  0  0  0  0  0  0  0  0  0  0
  -18.9692   11.8172   26.0583 C   0  0  0  0  0  0  0  0  0  0  0  0
  -17.9480   11.8845   26.4491 H   0  0  0  0  0  0  0  0  0  0  0  0
  -19.3017   10.7874   26.2382 H   0  0  0  0  0  0  0  0  0  0  0  0
  -19.8191   12.6954   26.8402 N   0  0  0  0  0  0  0  0  0  0  0  0
  -19.5547   13.9972   27.1982 C   0  0  0  0  0  0  0  0  0  0  0  0
  -18.3043   14.7100   26.8250 C   0  0  0  0  0  0  0  0  0  0  0  0
  -18.3559   15.7584   27.1334 H   0  0  0  0  0  0  0  0  0  0  0  0
  -18.1483   14.6860   25.7429 H   0  0  0  0  0  0  0  0  0  0  0  0
  -17.4403   14.2563   27.3198 H   0  0  0  0  0  0  0  0  0  0  0  0
  -20.5193   14.5096   27.8874 N   0  0  0  0  0  0  0  0  0  0  0  0
  -21.4676   13.5171   27.9989 C   0  0  0  0  0  0  0  0  0  0  0  0
  -21.0423   12.3756   27.3501 C   0  0  0  0  0  0  0  0  0  0  0  0
  -21.8061   11.2004   27.2985 C   0  0  0  0  0  0  0  0  0  0  0  0
  -21.4542   10.3360   26.7971 H   0  0  0  0  0  0  0  0  0  0  0  0
  -23.0403   11.2081   27.9299 C   0  0  0  0  0  0  0  0  0  0  0  0
  -23.6487   10.3418   27.9148 H   0  0  0  0  0  0  0  0  0  0  0  0
  -23.4952   12.3680   28.5975 C   0  0  0  0  0  0  0  0  0  0  0  0
  -24.4421   12.3569   29.0760 H   0  0  0  0  0  0  0  0  0  0  0  0
  -22.7166   13.5169   28.6345 C   0  0  0  0  0  0  0  0  0  0  0  0
  -23.0469   14.3889   29.1325 H   0  0  0  0  0  0  0  0  0  0  0  0
  1  2  2  0
  2  3  1  0
  2  6  1  0
  3  4  1  0
  3  5  1  0
  6  7  1  0
  6  8  1  0
  6  9  1  0
  9 10  1  0
  9 11  1  0
  9 12  1  0
 12 13  1  0
 12 20  1  0
 13 14  1  0
 13 18  2  0
 14 15  1  0
 14 16  1  0
 14 17  1  0
 18 19  1  0
 19 20  1  0
 19 27  2  0
 20 21  2  0
 21 22  1  0
 21 23  1  0
 23 24  1  0
 23 25  2  0
 25 26  1  0
 25 27  1  0
 27 28  1  0
M  END
$$$$
