
     RDKit          3D

 24 24  0  0  0  0  0  0  0  0999 V2000
  -14.8051   19.1149   27.2082 O   0  0  0  0  0  0  0  0  0  0  0  0
  -14.1197   19.6143   27.6871 H   0  0  0  0  0  0  0  0  0  0  0  0
  -15.6658   20.0685   26.5965 C   0  0  0  0  0  0  0  0  0  0  0  0
  -16.0939   20.7039   27.3778 H   0  0  0  0  0  0  0  0  0  0  0  0
  -15.0550   20.6903   25.9348 H   0  0  0  0  0  0  0  0  0  0  0  0
  -16.7614   19.3733   25.7779 C   0  0  0  0  0  0  0  0  0  0  0  0
  -16.3446   18.9148   24.8734 H   0  0  0  0  0  0  0  0  0  0  0  0
  -17.4609   20.1385   25.4180 H   0  0  0  0  0  0  0  0  0  0  0  0
  -17.5178   18.3915   26.5861 N   0  0  0  0  0  0  0  0  0  0  0  0
  -16.8977   17.0721   26.7058 C   0  0  0  0  0  0  0  0  0  0  0  0
  -16.0297   16.9680   26.0438 H   0  0  0  0  0  0  0  0  0  0  0  0
  -17.6054   16.2837   26.4273 H   0  0  0  0  0  0  0  0  0  0  0  0
  -16.5482   16.9038   27.7302 H   0  0  0  0  0  0  0  0  0  0  0  0
  -18.7196   18.7457   27.1493 C   0  0  0  0  0  0  0  0  0  0  0  0
  -18.7750   18.6157   28.4830 N   0  0  0  0  0  0  0  0  0  0  0  0
  -17.9274   18.2539   28.9338 H   0  0  0  0  0  0  0  0  0  0  0  0
  -19.8802   18.9377   29.2193 C   0  0  0  0  0  0  0  0  0  0  0  0
  -19.7950   18.7912   30.2680 H   0  0  0  0  0  0  0  0  0  0  0  0
  -20.9991   19.4171   28.5792 C   0  0  0  0  0  0  0  0  0  0  0  0
  -21.8681   19.6743   29.1304 H   0  0  0  0  0  0  0  0  0  0  0  0
  -20.9955   19.5627   27.1807 C   0  0  0  0  0  0  0  0  0  0  0  0
  -21.8617   19.9235   26.6799 H   0  0  0  0  0  0  0  0  0  0  0  0
  -19.8686   19.2276   26.4684 C   0  0  0  0  0  0  0  0  0  0  0  0
  -19.8603   19.3156   25.4149 H   0  0  0  0  0  0  0  0  0  0  0  0
  1  2  1  0
  1  3  1  0
  3  4  1  0
  3  5  1  0
  3  6  1  0
  6  7  1  0
  6  8  1  0
  6  9  1  0
  9 10  1  0
  9 14  1  0
 10 11  1  0
 10 12  1  0
 10 13  1  0
 14 15  1  0
 14 23  2  0
 15 16  1  0
 15 17  2  0
 17 18  1  0
 17 19  1  0
 19 20  1  0
 19 21  2  0
 21 22  1  0
 21 23  1  0
 23 24  1  0
M  END
$$$$
