
     RDKit          3D

 26 26  0  0  0  0  0  0  0  0999 V2000
  -18.8971   12.7303   26.8957 S   0  0  0  0  0  0  0  0  0  0  0  0
  -17.6894   12.0879   27.3663 O   0  0  0  0  0  0  0  0  0  0  0  0
  -18.9713   14.1635   26.7065 O   0  0  0  0  0  0  0  0  0  0  0  0
  -20.1752   12.3081   27.9086 N   0  0  0  0  0  0  0  0  0  0  0  0
  -19.8970   11.9941   28.8417 H   0  0  0  0  0  0  0  0  0  0  0  0
  -21.4569   13.0315   27.8069 C   0  0  0  0  0  0  0  0  0  0  0  0
  -21.3353   14.0021   28.3005 H   0  0  0  0  0  0  0  0  0  0  0  0
  -21.7252   13.2096   26.7598 H   0  0  0  0  0  0  0  0  0  0  0  0
  -22.5661   12.2489   28.5138 C   0  0  0  0  0  0  0  0  0  0  0  0
  -22.8497   11.3665   27.9255 H   0  0  0  0  0  0  0  0  0  0  0  0
  -22.1804   11.8622   29.4657 H   0  0  0  0  0  0  0  0  0  0  0  0
  -23.7946   13.0862   28.7955 C   0  0  0  0  0  0  0  0  0  0  0  0
  -24.0224   13.5858   30.0832 C   0  0  0  0  0  0  0  0  0  0  0  0
  -23.3442   13.3688   30.8670 H   0  0  0  0  0  0  0  0  0  0  0  0
  -25.1431   14.3711   30.3425 C   0  0  0  0  0  0  0  0  0  0  0  0
  -25.3264   14.7544   31.3128 H   0  0  0  0  0  0  0  0  0  0  0  0
  -26.0211   14.6476   29.3044 C   0  0  0  0  0  0  0  0  0  0  0  0
  -27.1004   15.4035   29.5525 F   0  0  0  0  0  0  0  0  0  0  0  0
  -25.8165   14.1697   28.0181 C   0  0  0  0  0  0  0  0  0  0  0  0
  -26.5013   14.4040   27.2460 H   0  0  0  0  0  0  0  0  0  0  0  0
  -24.6945   13.3835   27.7670 C   0  0  0  0  0  0  0  0  0  0  0  0
  -24.5211   13.0182   26.7863 H   0  0  0  0  0  0  0  0  0  0  0  0
  -19.3811   11.9582   25.3668 C   0  0  0  0  0  0  0  0  0  0  0  0
  -19.3987   10.8750   25.4993 H   0  0  0  0  0  0  0  0  0  0  0  0
  -18.6410   12.2229   24.6083 H   0  0  0  0  0  0  0  0  0  0  0  0
  -20.3621   12.3358   25.0738 H   0  0  0  0  0  0  0  0  0  0  0  0
  1  2  2  0
  1  3  2  0
  1  4  1  0
  1 23  1  0
  4  5  1  0
  4  6  1  0
  6  7  1  0
  6  8  1  0
  6  9  1  0
  9 10  1  0
  9 11  1  0
  9 12  1  0
 12 13  1  0
 12 21  2  0
 13 14  1  0
 13 15  2  0
 15 16  1  0
 15 17  1  0
 17 18  1  0
 17 19  2  0
 19 20  1  0
 19 21  1  0
 21 22  1  0
 23 24  1  0
 23 25  1  0
 23 26  1  0
M  END
$$$$
