
     RDKit          3D

 29 30  0  0  0  0  0  0  0  0999 V2000
  -16.4876   13.4421   23.2753 O   0  0  0  0  0  0  0  0  0  0  0  0
  -16.9817   12.4979   23.8693 C   0  0  0  0  0  0  0  0  0  0  0  0
  -16.7549   11.2553   23.4382 N   0  0  0  0  0  0  0  0  0  0  0  0
  -17.4833   10.8801   22.8208 H   0  0  0  0  0  0  0  0  0  0  0  0
  -15.7793   11.0116   23.2508 H   0  0  0  0  0  0  0  0  0  0  0  0
  -17.7640   12.6231   24.9872 N   0  0  0  0  0  0  0  0  0  0  0  0
  -17.8589   13.9294   25.6451 C   0  0  0  0  0  0  0  0  0  0  0  0
  -17.2861   14.6921   25.1074 H   0  0  0  0  0  0  0  0  0  0  0  0
  -17.4075   13.8197   26.6387 H   0  0  0  0  0  0  0  0  0  0  0  0
  -19.3160   14.3719   25.7769 C   0  0  0  0  0  0  0  0  0  0  0  0
  -19.7518   14.5235   24.7820 H   0  0  0  0  0  0  0  0  0  0  0  0
  -19.3674   15.3299   26.3017 H   0  0  0  0  0  0  0  0  0  0  0  0
  -20.1329   13.3423   26.4370 N   0  0  0  0  0  0  0  0  0  0  0  0
  -20.9260   13.6723   27.5316 C   0  0  0  0  0  0  0  0  0  0  0  0
  -20.6807   14.7467   28.0811 O   0  0  0  0  0  0  0  0  0  0  0  0
  -21.9754   12.7929   27.9967 C   0  0  0  0  0  0  0  0  0  0  0  0
  -23.1356   12.6516   27.2875 O   0  0  0  0  0  0  0  0  0  0  0  0
  -23.9500   11.8225   27.9770 C   0  0  0  0  0  0  0  0  0  0  0  0
  -24.9047   11.5688   27.5927 H   0  0  0  0  0  0  0  0  0  0  0  0
  -23.3439   11.4416   29.1251 C   0  0  0  0  0  0  0  0  0  0  0  0
  -23.7490   10.7965   29.8606 H   0  0  0  0  0  0  0  0  0  0  0  0
  -22.0786   12.0752   29.1520 C   0  0  0  0  0  0  0  0  0  0  0  0
  -21.3386   12.0188   29.9092 H   0  0  0  0  0  0  0  0  0  0  0  0
  -20.0284   12.0057   25.8355 C   0  0  0  0  0  0  0  0  0  0  0  0
  -20.5096   11.2461   26.4541 H   0  0  0  0  0  0  0  0  0  0  0  0
  -20.5476   12.0504   24.8712 H   0  0  0  0  0  0  0  0  0  0  0  0
  -18.5654   11.5714   25.6288 C   0  0  0  0  0  0  0  0  0  0  0  0
  -18.5604   10.6439   25.0520 H   0  0  0  0  0  0  0  0  0  0  0  0
  -18.0961   11.3682   26.5991 H   0  0  0  0  0  0  0  0  0  0  0  0
  1  2  2  0
  2  3  1  0
  2  6  1  0
  3  4  1  0
  3  5  1  0
  6  7  1  0
  6 27  1  0
  7  8  1  0
  7  9  1  0
  7 10  1  0
 10 11  1  0
 10 12  1  0
 10 13  1  0
 13 14  1  0
 13 24  1  0
 14 15  2  0
 14 16  1  0
 16 17  1  0
 16 22  2  0
 17 18  1  0
 18 19  1  0
 18 20  2  0
 20 21  1  0
 20 22  1  0
 22 23  1  0
 24 25  1  0
 24 26  1  0
 24 27  1  0
 27 28  1  0
 27 29  1  0
M  END
$$$$
