
     RDKit          3D

 25 27  0  0  0  0  0  0  0  0999 V2000
  -22.6150   12.9241   26.4768 O   0  0  0  0  0  0  0  0  0  0  0  0
  -22.3479   12.5644   27.6218 C   0  0  0  0  0  0  0  0  0  0  0  0
  -21.0574   12.2441   27.9199 N   0  0  0  0  0  0  0  0  0  0  0  0
  -20.8856   11.9621   28.8990 H   0  0  0  0  0  0  0  0  0  0  0  0
  -19.9753   12.2838   26.9940 C   0  0  0  0  0  0  0  0  0  0  0  0
  -20.1711   11.7141   26.0885 H   0  0  0  0  0  0  0  0  0  0  0  0
  -18.5508   12.3004   27.4785 C   0  0  0  0  0  0  0  0  0  0  0  0
  -18.3622   12.3252   28.5449 H   0  0  0  0  0  0  0  0  0  0  0  0
  -17.8187   11.7395   26.9094 H   0  0  0  0  0  0  0  0  0  0  0  0
  -19.1410   13.5257   26.8452 C   0  0  0  0  0  0  0  0  0  0  0  0
  -18.8149   13.7949   25.8479 H   0  0  0  0  0  0  0  0  0  0  0  0
  -19.3629   14.3722   27.4850 H   0  0  0  0  0  0  0  0  0  0  0  0
  -23.3138   12.4628   28.6910 C   0  0  0  0  0  0  0  0  0  0  0  0
  -24.5313   13.0938   28.7455 C   0  0  0  0  0  0  0  0  0  0  0  0
  -25.0756   12.6872   29.9408 N   0  0  0  0  0  0  0  0  0  0  0  0
  -24.2683   11.8377   30.6299 N   0  0  0  0  0  0  0  0  0  0  0  0
  -23.2120   11.7142   29.8628 C   0  0  0  0  0  0  0  0  0  0  0  0
  -22.3786   11.1075   30.1175 H   0  0  0  0  0  0  0  0  0  0  0  0
  -26.3372   13.1313   30.3563 C   0  0  0  0  0  0  0  0  0  0  0  0
  -26.6717   12.7643   31.2916 H   0  0  0  0  0  0  0  0  0  0  0  0
  -26.9861   13.9860   29.5072 C   0  0  0  0  0  0  0  0  0  0  0  0
  -27.9432   14.3671   29.7509 H   0  0  0  0  0  0  0  0  0  0  0  0
  -26.3852   14.3868   28.2684 C   0  0  0  0  0  0  0  0  0  0  0  0
  -26.9071   15.0501   27.6274 H   0  0  0  0  0  0  0  0  0  0  0  0
  -25.2091   13.9690   27.8862 N   0  0  0  0  0  0  0  0  0  0  0  0
  1  2  2  0
  2  3  1  0
  2 13  1  0
  3  4  1  0
  3  5  1  0
  5  6  1  0
  5  7  1  0
  5 10  1  0
  7  8  1  0
  7  9  1  0
  7 10  1  0
 10 11  1  0
 10 12  1  0
 13 14  2  0
 13 17  1  0
 14 15  1  0
 14 25  1  0
 15 16  1  0
 15 19  1  0
 16 17  2  0
 17 18  1  0
 19 20  1  0
 19 21  2  0
 21 22  1  0
 21 23  1  0
 23 24  1  0
 23 25  2  0
M  END
$$$$
