
     RDKit          3D

 35 37  0  0  0  0  0  0  0  0999 V2000
  -18.3317   21.5914   26.5776 F   0  0  0  0  0  0  0  0  0  0  0  0
  -18.1879   20.2594   26.5317 C   0  0  0  0  0  0  0  0  0  0  0  0
  -17.0664   19.7263   25.9087 C   0  0  0  0  0  0  0  0  0  0  0  0
  -16.3415   20.3683   25.4803 H   0  0  0  0  0  0  0  0  0  0  0  0
  -16.9162   18.3436   25.8590 C   0  0  0  0  0  0  0  0  0  0  0  0
  -16.0658   17.9356   25.3869 H   0  0  0  0  0  0  0  0  0  0  0  0
  -17.8972   17.5096   26.4250 C   0  0  0  0  0  0  0  0  0  0  0  0
  -17.7615   16.1284   26.3630 N   0  0  0  0  0  0  0  0  0  0  0  0
  -17.5627   15.4071   25.0969 C   0  0  0  0  0  0  0  0  0  0  0  0
  -17.6235   16.0542   24.2162 H   0  0  0  0  0  0  0  0  0  0  0  0
  -16.5488   14.9878   25.1023 H   0  0  0  0  0  0  0  0  0  0  0  0
  -18.5806   14.2628   24.9679 C   0  0  0  0  0  0  0  0  0  0  0  0
  -18.3741   13.6862   24.0632 H   0  0  0  0  0  0  0  0  0  0  0  0
  -19.5935   14.6710   24.8728 H   0  0  0  0  0  0  0  0  0  0  0  0
  -18.5742   13.4122   26.1659 N   0  0  0  0  0  0  0  0  0  0  0  0
  -18.4000   12.0483   26.1606 C   0  0  0  0  0  0  0  0  0  0  0  0
  -18.4265   11.4504   27.2205 O   0  0  0  0  0  0  0  0  0  0  0  0
  -18.1908   11.3431   24.8760 C   0  0  0  0  0  0  0  0  0  0  0  0
  -17.1779   11.4163   24.4922 H   0  0  0  0  0  0  0  0  0  0  0  0
  -19.2803   11.3402   23.8269 C   0  0  0  0  0  0  0  0  0  0  0  0
  -20.2135   11.8437   24.0534 H   0  0  0  0  0  0  0  0  0  0  0  0
  -18.9818   11.4075   22.7879 H   0  0  0  0  0  0  0  0  0  0  0  0
  -18.9627   10.0800   24.5723 C   0  0  0  0  0  0  0  0  0  0  0  0
  -19.6902    9.7291   25.2962 H   0  0  0  0  0  0  0  0  0  0  0  0
  -18.4504    9.2892   24.0375 H   0  0  0  0  0  0  0  0  0  0  0  0
  -18.7797   14.1455   27.4214 C   0  0  0  0  0  0  0  0  0  0  0  0
  -19.8001   14.5444   27.3903 H   0  0  0  0  0  0  0  0  0  0  0  0
  -18.7135   13.4825   28.2898 H   0  0  0  0  0  0  0  0  0  0  0  0
  -17.7710   15.2970   27.5774 C   0  0  0  0  0  0  0  0  0  0  0  0
  -16.7642   14.8938   27.7369 H   0  0  0  0  0  0  0  0  0  0  0  0
  -18.0495   15.8649   28.4720 H   0  0  0  0  0  0  0  0  0  0  0  0
  -19.0101   18.0766   27.0675 C   0  0  0  0  0  0  0  0  0  0  0  0
  -19.7269   17.4555   27.5358 H   0  0  0  0  0  0  0  0  0  0  0  0
  -19.1609   19.4592   27.1142 C   0  0  0  0  0  0  0  0  0  0  0  0
  -19.9959   19.8998   27.5922 H   0  0  0  0  0  0  0  0  0  0  0  0
  1  2  1  0
  2  3  1  0
  2 34  2  0
  3  4  1  0
  3  5  2  0
  5  6  1  0
  5  7  1  0
  7  8  1  0
  7 32  2  0
  8  9  1  0
  8 29  1  0
  9 10  1  0
  9 11  1  0
  9 12  1  0
 12 13  1  0
 12 14  1  0
 12 15  1  0
 15 16  1  0
 15 26  1  0
 16 17  2  0
 16 18  1  0
 18 19  1  0
 18 20  1  0
 18 23  1  0
 20 21  1  0
 20 22  1  0
 20 23  1  0
 23 24  1  0
 23 25  1  0
 26 27  1  0
 26 28  1  0
 26 29  1  0
 29 30  1  0
 29 31  1  0
 32 33  1  0
 32 34  1  0
 34 35  1  0
M  END
$$$$
