
     RDKit          3D

 25 27  0  0  0  0  0  0  0  0999 V2000
  -17.0574   14.5356   27.3235 O   0  0  0  0  0  0  0  0  0  0  0  0
  -17.8767   15.3451   26.8928 C   0  0  0  0  0  0  0  0  0  0  0  0
  -19.0369   14.8744   26.3550 N   0  0  0  0  0  0  0  0  0  0  0  0
  -19.6958   15.5970   26.0214 H   0  0  0  0  0  0  0  0  0  0  0  0
  -19.3796   13.4963   26.2405 C   0  0  0  0  0  0  0  0  0  0  0  0
  -19.2256   13.1029   25.2384 H   0  0  0  0  0  0  0  0  0  0  0  0
  -20.5403   12.9275   27.0109 C   0  0  0  0  0  0  0  0  0  0  0  0
  -21.0851   13.5744   27.6877 H   0  0  0  0  0  0  0  0  0  0  0  0
  -21.1520   12.1793   26.5206 H   0  0  0  0  0  0  0  0  0  0  0  0
  -19.1369   12.5502   27.3837 C   0  0  0  0  0  0  0  0  0  0  0  0
  -18.7940   11.5510   27.1442 H   0  0  0  0  0  0  0  0  0  0  0  0
  -18.7297   12.9522   28.3044 H   0  0  0  0  0  0  0  0  0  0  0  0
  -17.7005   16.7784   26.9230 C   0  0  0  0  0  0  0  0  0  0  0  0
  -16.5205   17.4452   27.1392 C   0  0  0  0  0  0  0  0  0  0  0  0
  -16.8609   18.7756   27.0732 N   0  0  0  0  0  0  0  0  0  0  0  0
  -18.1828   18.9736   26.8252 N   0  0  0  0  0  0  0  0  0  0  0  0
  -18.6728   17.7603   26.7381 C   0  0  0  0  0  0  0  0  0  0  0  0
  -19.6982   17.5619   26.5469 H   0  0  0  0  0  0  0  0  0  0  0  0
  -15.9038   19.7828   27.2487 C   0  0  0  0  0  0  0  0  0  0  0  0
  -16.2612   20.7773   27.1812 H   0  0  0  0  0  0  0  0  0  0  0  0
  -14.6232   19.3637   27.4876 C   0  0  0  0  0  0  0  0  0  0  0  0
  -13.8431   20.0644   27.6325 H   0  0  0  0  0  0  0  0  0  0  0  0
  -14.3076   17.9662   27.5487 C   0  0  0  0  0  0  0  0  0  0  0  0
  -13.3085   17.6659   27.7354 H   0  0  0  0  0  0  0  0  0  0  0  0
  -15.2041   17.0319   27.3837 N   0  0  0  0  0  0  0  0  0  0  0  0
  1  2  2  0
  2  3  1  0
  2 13  1  0
  3  4  1  0
  3  5  1  0
  5  6  1  0
  5  7  1  0
  5 10  1  0
  7  8  1  0
  7  9  1  0
  7 10  1  0
 10 11  1  0
 10 12  1  0
 13 14  2  0
 13 17  1  0
 14 15  1  0
 14 25  1  0
 15 16  1  0
 15 19  1  0
 16 17  2  0
 17 18  1  0
 19 20  1  0
 19 21  2  0
 21 22  1  0
 21 23  1  0
 23 24  1  0
 23 25  2  0
M  END
$$$$
