
     RDKit          3D

 26 26  0  0  0  0  0  0  0  0999 V2000
  -19.6010   12.1280   29.1711 F   0  0  0  0  0  0  0  0  0  0  0  0
  -20.6951   12.3762   28.4343 C   0  0  0  0  0  0  0  0  0  0  0  0
  -20.6155   12.7808   27.0892 C   0  0  0  0  0  0  0  0  0  0  0  0
  -19.3859   12.9217   26.4261 N   0  0  0  0  0  0  0  0  0  0  0  0
  -19.1451   14.1823   25.6851 C   0  0  0  0  0  0  0  0  0  0  0  0
  -18.8619   13.9058   24.1969 C   0  0  0  0  0  0  0  0  0  0  0  0
  -17.8390   13.5370   24.0644 H   0  0  0  0  0  0  0  0  0  0  0  0
  -18.9663   14.8119   23.5920 H   0  0  0  0  0  0  0  0  0  0  0  0
  -19.7514   12.9266   23.6639 O   0  0  0  0  0  0  0  0  0  0  0  0
  -19.5728   12.1201   24.1801 H   0  0  0  0  0  0  0  0  0  0  0  0
  -18.0310   15.0271   26.3151 C   0  0  0  0  0  0  0  0  0  0  0  0
  -18.0107   16.0230   25.8581 H   0  0  0  0  0  0  0  0  0  0  0  0
  -17.0381   14.5914   26.1700 H   0  0  0  0  0  0  0  0  0  0  0  0
  -18.1961   15.1564   27.3893 H   0  0  0  0  0  0  0  0  0  0  0  0
  -18.3857   11.8652   26.4772 C   0  0  0  0  0  0  0  0  0  0  0  0
  -17.8830   11.8542   27.4499 H   0  0  0  0  0  0  0  0  0  0  0  0
  -17.6151   11.9828   25.7098 H   0  0  0  0  0  0  0  0  0  0  0  0
  -18.8347   10.8836   26.2840 H   0  0  0  0  0  0  0  0  0  0  0  0
  -21.7203   13.0393   26.3725 N   0  0  0  0  0  0  0  0  0  0  0  0
  -22.9137   12.9202   26.9676 C   0  0  0  0  0  0  0  0  0  0  0  0
  -23.7753   13.1331   26.3884 H   0  0  0  0  0  0  0  0  0  0  0  0
  -23.0523   12.5316   28.3015 C   0  0  0  0  0  0  0  0  0  0  0  0
  -24.0164   12.4508   28.7314 H   0  0  0  0  0  0  0  0  0  0  0  0
  -21.9200   12.2494   29.0613 C   0  0  0  0  0  0  0  0  0  0  0  0
  -21.9860   11.9491   30.0748 H   0  0  0  0  0  0  0  0  0  0  0  0
  -20.0384   14.8188   25.7443 H   0  0  0  0  0  0  0  0  0  0  0  0
  1  2  1  0
  2  3  1  0
  2 24  2  0
  3  4  1  0
  3 19  2  0
  4  5  1  0
  4 15  1  0
  5  6  1  0
  5 11  1  0
  5 26  1  0
  6  7  1  0
  6  8  1  0
  6  9  1  0
  9 10  1  0
 11 12  1  0
 11 13  1  0
 11 14  1  0
 15 16  1  0
 15 17  1  0
 15 18  1  0
 19 20  1  0
 20 21  1  0
 20 22  2  0
 22 23  1  0
 22 24  1  0
 24 25  1  0
M  END
$$$$
