
     RDKit          3D

 30 31  0  0  0  0  0  0  0  0999 V2000
  -25.3149   12.5717   29.5641 F   0  0  0  0  0  0  0  0  0  0  0  0
  -24.1244   12.5687   28.9472 C   0  0  0  0  0  0  0  0  0  0  0  0
  -24.0700   12.8689   27.5913 C   0  0  0  0  0  0  0  0  0  0  0  0
  -24.9577   13.0919   27.0591 H   0  0  0  0  0  0  0  0  0  0  0  0
  -22.8347   12.8645   26.9516 C   0  0  0  0  0  0  0  0  0  0  0  0
  -22.7678   13.0704   25.9163 H   0  0  0  0  0  0  0  0  0  0  0  0
  -21.6728   12.5653   27.6764 C   0  0  0  0  0  0  0  0  0  0  0  0
  -20.4392   12.5591   27.0382 N   0  0  0  0  0  0  0  0  0  0  0  0
  -19.8630   11.3354   26.4644 C   0  0  0  0  0  0  0  0  0  0  0  0
  -18.9767   11.0534   27.0457 H   0  0  0  0  0  0  0  0  0  0  0  0
  -20.5604   10.4908   26.4898 H   0  0  0  0  0  0  0  0  0  0  0  0
  -19.4767   11.5847   24.9981 C   0  0  0  0  0  0  0  0  0  0  0  0
  -20.3800   11.7521   24.3988 H   0  0  0  0  0  0  0  0  0  0  0  0
  -18.9797   10.6975   24.5924 H   0  0  0  0  0  0  0  0  0  0  0  0
  -18.6445   12.7849   24.8426 N   0  0  0  0  0  0  0  0  0  0  0  0
  -17.4414   12.6769   24.2002 C   0  0  0  0  0  0  0  0  0  0  0  0
  -16.9245   11.6150   23.8966 O   0  0  0  0  0  0  0  0  0  0  0  0
  -16.8312   13.8233   23.8895 N   0  0  0  0  0  0  0  0  0  0  0  0
  -15.9635   13.7099   23.3549 H   0  0  0  0  0  0  0  0  0  0  0  0
  -17.4424   14.6135   23.6727 H   0  0  0  0  0  0  0  0  0  0  0  0
  -19.2252   14.0001   25.4413 C   0  0  0  0  0  0  0  0  0  0  0  0
  -18.5336   14.8440   25.3987 H   0  0  0  0  0  0  0  0  0  0  0  0
  -20.1118   14.2549   24.8498 H   0  0  0  0  0  0  0  0  0  0  0  0
  -19.6112   13.7657   26.9114 C   0  0  0  0  0  0  0  0  0  0  0  0
  -20.0912   14.6634   27.3155 H   0  0  0  0  0  0  0  0  0  0  0  0
  -18.6992   13.6135   27.5028 H   0  0  0  0  0  0  0  0  0  0  0  0
  -21.7502   12.2603   29.0454 C   0  0  0  0  0  0  0  0  0  0  0  0
  -20.8780   12.0408   29.5998 H   0  0  0  0  0  0  0  0  0  0  0  0
  -22.9864   12.2642   29.6842 C   0  0  0  0  0  0  0  0  0  0  0  0
  -23.0674   12.0415   30.7160 H   0  0  0  0  0  0  0  0  0  0  0  0
  1  2  1  0
  2  3  1  0
  2 29  2  0
  3  4  1  0
  3  5  2  0
  5  6  1  0
  5  7  1  0
  7  8  1  0
  7 27  2  0
  8  9  1  0
  8 24  1  0
  9 10  1  0
  9 11  1  0
  9 12  1  0
 12 13  1  0
 12 14  1  0
 12 15  1  0
 15 16  1  0
 15 21  1  0
 16 17  2  0
 16 18  1  0
 18 19  1  0
 18 20  1  0
 21 22  1  0
 21 23  1  0
 21 24  1  0
 24 25  1  0
 24 26  1  0
 27 28  1  0
 27 29  1  0
 29 30  1  0
M  END
$$$$
