
     RDKit          3D

 26 26  0  0  0  0  0  0  0  0999 V2000
  -19.0067   13.0317   25.6123 S   0  0  0  0  0  0  0  0  0  0  0  0
  -18.2026   13.1813   26.8055 O   0  0  0  0  0  0  0  0  0  0  0  0
  -19.0177   14.0383   24.5722 O   0  0  0  0  0  0  0  0  0  0  0  0
  -20.6111   12.7780   26.0586 N   0  0  0  0  0  0  0  0  0  0  0  0
  -21.1190   12.1112   25.4719 H   0  0  0  0  0  0  0  0  0  0  0  0
  -20.9894   12.8302   27.4836 C   0  0  0  0  0  0  0  0  0  0  0  0
  -20.3950   12.0802   28.0170 H   0  0  0  0  0  0  0  0  0  0  0  0
  -20.7677   13.8134   27.9128 H   0  0  0  0  0  0  0  0  0  0  0  0
  -22.4744   12.5000   27.6514 C   0  0  0  0  0  0  0  0  0  0  0  0
  -23.0912   13.1880   27.0587 H   0  0  0  0  0  0  0  0  0  0  0  0
  -22.6668   11.4994   27.2436 H   0  0  0  0  0  0  0  0  0  0  0  0
  -22.9281   12.5283   29.0946 C   0  0  0  0  0  0  0  0  0  0  0  0
  -22.9372   11.3498   29.8500 C   0  0  0  0  0  0  0  0  0  0  0  0
  -22.6402   10.4329   29.4111 H   0  0  0  0  0  0  0  0  0  0  0  0
  -23.3379   11.3748   31.1837 C   0  0  0  0  0  0  0  0  0  0  0  0
  -23.3494   10.4895   31.7653 H   0  0  0  0  0  0  0  0  0  0  0  0
  -23.7225   12.5843   31.7442 C   0  0  0  0  0  0  0  0  0  0  0  0
  -24.1084   12.6100   33.0280 F   0  0  0  0  0  0  0  0  0  0  0  0
  -23.7178   13.7676   31.0200 C   0  0  0  0  0  0  0  0  0  0  0  0
  -24.0104   14.6756   31.4783 H   0  0  0  0  0  0  0  0  0  0  0  0
  -23.3176   13.7342   29.6862 C   0  0  0  0  0  0  0  0  0  0  0  0
  -23.3013   14.6329   29.1228 H   0  0  0  0  0  0  0  0  0  0  0  0
  -18.5953   11.4754   24.8531 C   0  0  0  0  0  0  0  0  0  0  0  0
  -18.6443   10.6839   25.6030 H   0  0  0  0  0  0  0  0  0  0  0  0
  -17.5770   11.5502   24.4649 H   0  0  0  0  0  0  0  0  0  0  0  0
  -19.2903   11.2859   24.0335 H   0  0  0  0  0  0  0  0  0  0  0  0
  1  2  2  0
  1  3  2  0
  1  4  1  0
  1 23  1  0
  4  5  1  0
  4  6  1  0
  6  7  1  0
  6  8  1  0
  6  9  1  0
  9 10  1  0
  9 11  1  0
  9 12  1  0
 12 13  1  0
 12 21  2  0
 13 14  1  0
 13 15  2  0
 15 16  1  0
 15 17  1  0
 17 18  1  0
 17 19  2  0
 19 20  1  0
 19 21  1  0
 21 22  1  0
 23 24  1  0
 23 25  1  0
 23 26  1  0
M  END
$$$$
