
     RDKit          3D

 27 28  0  0  0  0  0  0  0  0999 V2000
  -18.0727   14.0294   26.1496 O   0  0  0  0  0  0  0  0  0  0  0  0
  -18.0559   15.0527   25.1635 C   0  0  0  0  0  0  0  0  0  0  0  0
  -17.5923   15.9385   25.6092 H   0  0  0  0  0  0  0  0  0  0  0  0
  -19.0724   15.3272   24.8612 H   0  0  0  0  0  0  0  0  0  0  0  0
  -17.4494   14.7603   24.3000 H   0  0  0  0  0  0  0  0  0  0  0  0
  -18.6331   12.8120   25.8240 C   0  0  0  0  0  0  0  0  0  0  0  0
  -19.7761   12.4502   26.5512 C   0  0  0  0  0  0  0  0  0  0  0  0
  -20.3616   11.2065   26.2705 C   0  0  0  0  0  0  0  0  0  0  0  0
  -21.4836   10.6302   26.9123 N   0  0  0  0  0  0  0  0  0  0  0  0
  -21.8268    9.7563   26.4958 H   0  0  0  0  0  0  0  0  0  0  0  0
  -22.2285   10.9711   27.9969 C   0  0  0  0  0  0  0  0  0  0  0  0
  -23.1026   10.1717   28.2396 O   0  0  0  0  0  0  0  0  0  0  0  0
  -21.9387   12.1570   28.8493 C   0  0  0  0  0  0  0  0  0  0  0  0
  -22.8140   12.3168   29.4907 H   0  0  0  0  0  0  0  0  0  0  0  0
  -21.0883   11.9338   29.5031 H   0  0  0  0  0  0  0  0  0  0  0  0
  -21.7207   13.3861   28.0054 C   0  0  0  0  0  0  0  0  0  0  0  0
  -22.4022   13.4155   27.1458 H   0  0  0  0  0  0  0  0  0  0  0  0
  -21.9373   14.2708   28.6157 H   0  0  0  0  0  0  0  0  0  0  0  0
  -20.2759   13.4706   27.5517 C   0  0  0  0  0  0  0  0  0  0  0  0
  -19.6116   13.4453   28.4255 H   0  0  0  0  0  0  0  0  0  0  0  0
  -20.1803   14.4707   27.1091 H   0  0  0  0  0  0  0  0  0  0  0  0
  -19.8228   10.3600   25.2987 C   0  0  0  0  0  0  0  0  0  0  0  0
  -20.2777    9.4240   25.0992 H   0  0  0  0  0  0  0  0  0  0  0  0
  -18.6926   10.7422   24.5885 C   0  0  0  0  0  0  0  0  0  0  0  0
  -18.2873   10.0995   23.8498 H   0  0  0  0  0  0  0  0  0  0  0  0
  -18.0938   11.9700   24.8467 C   0  0  0  0  0  0  0  0  0  0  0  0
  -17.2335   12.2542   24.3013 H   0  0  0  0  0  0  0  0  0  0  0  0
  1  2  1  0
  1  6  1  0
  2  3  1  0
  2  4  1  0
  2  5  1  0
  6  7  1  0
  6 26  2  0
  7  8  2  0
  7 19  1  0
  8  9  1  0
  8 22  1  0
  9 10  1  0
  9 11  1  0
 11 12  2  0
 11 13  1  0
 13 14  1  0
 13 15  1  0
 13 16  1  0
 16 17  1  0
 16 18  1  0
 16 19  1  0
 19 20  1  0
 19 21  1  0
 22 23  1  0
 22 24  2  0
 24 25  1  0
 24 26  1  0
 26 27  1  0
M  END
$$$$
