
     RDKit          3D

 27 27  0  0  0  0  0  0  0  0999 V2000
  -25.9160   15.9449   28.4838 S   0  0  0  0  0  0  0  0  0  0  0  0
  -25.1005   16.9822   29.0766 O   0  0  0  0  0  0  0  0  0  0  0  0
  -26.6004   16.1355   27.2238 O   0  0  0  0  0  0  0  0  0  0  0  0
  -27.0862   15.5252   29.6231 N   0  0  0  0  0  0  0  0  0  0  0  0
  -26.6831   15.3545   30.5474 H   0  0  0  0  0  0  0  0  0  0  0  0
  -27.6944   14.7717   29.2930 H   0  0  0  0  0  0  0  0  0  0  0  0
  -24.9691   14.4677   28.3909 C   0  0  0  0  0  0  0  0  0  0  0  0
  -23.9293   14.2300   29.2947 C   0  0  0  0  0  0  0  0  0  0  0  0
  -23.7323   14.9365   30.0638 H   0  0  0  0  0  0  0  0  0  0  0  0
  -23.1468   13.0859   29.1903 C   0  0  0  0  0  0  0  0  0  0  0  0
  -22.3587   12.9234   29.8820 H   0  0  0  0  0  0  0  0  0  0  0  0
  -23.3872   12.1603   28.1767 C   0  0  0  0  0  0  0  0  0  0  0  0
  -22.4962   10.9590   28.0205 C   0  0  0  0  0  0  0  0  0  0  0  0
  -23.0550   10.1090   27.6098 H   0  0  0  0  0  0  0  0  0  0  0  0
  -22.0963   10.6393   28.9906 H   0  0  0  0  0  0  0  0  0  0  0  0
  -21.3885   11.2602   27.1393 N   0  0  0  0  0  0  0  0  0  0  0  0
  -21.4287   10.8994   26.2016 H   0  0  0  0  0  0  0  0  0  0  0  0
  -20.3471   11.9826   27.5285 C   0  0  0  0  0  0  0  0  0  0  0  0
  -20.2601   12.4404   28.6581 O   0  0  0  0  0  0  0  0  0  0  0  0
  -19.2958   12.2058   26.4793 C   0  0  0  0  0  0  0  0  0  0  0  0
  -18.9890   11.2494   26.0461 H   0  0  0  0  0  0  0  0  0  0  0  0
  -19.6953   12.8501   25.6909 H   0  0  0  0  0  0  0  0  0  0  0  0
  -18.4223   12.6862   26.9285 H   0  0  0  0  0  0  0  0  0  0  0  0
  -24.4144   12.3952   27.2661 C   0  0  0  0  0  0  0  0  0  0  0  0
  -24.5965   11.7034   26.4821 H   0  0  0  0  0  0  0  0  0  0  0  0
  -25.1966   13.5410   27.3707 C   0  0  0  0  0  0  0  0  0  0  0  0
  -25.9698   13.7182   26.6641 H   0  0  0  0  0  0  0  0  0  0  0  0
  1  2  2  0
  1  3  2  0
  1  4  1  0
  1  7  1  0
  4  5  1  0
  4  6  1  0
  7  8  1  0
  7 26  2  0
  8  9  1  0
  8 10  2  0
 10 11  1  0
 10 12  1  0
 12 13  1  0
 12 24  2  0
 13 14  1  0
 13 15  1  0
 13 16  1  0
 16 17  1  0
 16 18  1  0
 18 19  2  0
 18 20  1  0
 20 21  1  0
 20 22  1  0
 20 23  1  0
 24 25  1  0
 24 26  1  0
 26 27  1  0
M  END
$$$$
