
     RDKit          3D

 26 28  0  0  0  0  0  0  0  0999 V2000
  -17.5456   13.9611   25.1424 O   0  0  0  0  0  0  0  0  0  0  0  0
  -17.9533   14.5913   26.1130 C   0  0  0  0  0  0  0  0  0  0  0  0
  -18.7978   13.9502   26.9841 N   0  0  0  0  0  0  0  0  0  0  0  0
  -19.0505   14.4288   27.8534 H   0  0  0  0  0  0  0  0  0  0  0  0
  -19.3186   12.6389   26.7586 C   0  0  0  0  0  0  0  0  0  0  0  0
  -18.7675   11.8677   27.2927 H   0  0  0  0  0  0  0  0  0  0  0  0
  -19.8822   12.2516   25.4184 C   0  0  0  0  0  0  0  0  0  0  0  0
  -19.9269   12.9978   24.6342 H   0  0  0  0  0  0  0  0  0  0  0  0
  -19.6930   11.2452   25.0639 H   0  0  0  0  0  0  0  0  0  0  0  0
  -20.7977   12.4206   26.5946 C   0  0  0  0  0  0  0  0  0  0  0  0
  -21.2241   11.5325   27.0447 H   0  0  0  0  0  0  0  0  0  0  0  0
  -21.4491   13.2859   26.6155 H   0  0  0  0  0  0  0  0  0  0  0  0
  -17.5304   15.9786   26.4045 C   0  0  0  0  0  0  0  0  0  0  0  0
  -18.4707   16.8516   26.9842 C   0  0  0  0  0  0  0  0  0  0  0  0
  -19.4540   16.5231   27.2005 H   0  0  0  0  0  0  0  0  0  0  0  0
  -18.0885   18.1522   27.2671 C   0  0  0  0  0  0  0  0  0  0  0  0
  -18.8735   19.1138   27.8190 O   0  0  0  0  0  0  0  0  0  0  0  0
  -17.9522   20.2231   27.8679 C   0  0  0  0  0  0  0  0  0  0  0  0
  -18.3671   21.0496   27.2810 H   0  0  0  0  0  0  0  0  0  0  0  0
  -17.8492   20.5480   28.9096 H   0  0  0  0  0  0  0  0  0  0  0  0
  -16.6427   19.9029   27.3528 O   0  0  0  0  0  0  0  0  0  0  0  0
  -16.8184   18.6012   27.0022 C   0  0  0  0  0  0  0  0  0  0  0  0
  -15.8603   17.7686   26.4416 C   0  0  0  0  0  0  0  0  0  0  0  0
  -14.8821   18.1307   26.2516 H   0  0  0  0  0  0  0  0  0  0  0  0
  -16.2201   16.4529   26.1469 C   0  0  0  0  0  0  0  0  0  0  0  0
  -15.4920   15.8012   25.7359 H   0  0  0  0  0  0  0  0  0  0  0  0
  1  2  2  0
  2  3  1  0
  2 13  1  0
  3  4  1  0
  3  5  1  0
  5  6  1  0
  5  7  1  0
  5 10  1  0
  7  8  1  0
  7  9  1  0
  7 10  1  0
 10 11  1  0
 10 12  1  0
 13 14  1  0
 13 25  2  0
 14 15  1  0
 14 16  2  0
 16 17  1  0
 16 22  1  0
 17 18  1  0
 18 19  1  0
 18 20  1  0
 18 21  1  0
 21 22  1  0
 22 23  2  0
 23 24  1  0
 23 25  1  0
 25 26  1  0
M  END
$$$$
