
     RDKit          3D

 16 17  0  0  0  0  0  0  0  0999 V2000
  -22.0581   13.5706   28.4926 Br  0  0  0  0  0  0  0  0  0  0  0  0
  -20.7787   12.8705   27.2822 C   0  0  0  0  0  0  0  0  0  0  0  0
  -19.6880   13.6298   26.7772 C   0  0  0  0  0  0  0  0  0  0  0  0
  -18.8031   12.9866   25.8784 C   0  0  0  0  0  0  0  0  0  0  0  0
  -18.9804   11.6866   25.5051 N   0  0  0  0  0  0  0  0  0  0  0  0
  -19.9844   11.0049   25.9768 C   0  0  0  0  0  0  0  0  0  0  0  0
  -20.0967    9.9940   25.6687 H   0  0  0  0  0  0  0  0  0  0  0  0
  -20.9123   11.5670   26.8742 C   0  0  0  0  0  0  0  0  0  0  0  0
  -21.7128   10.9703   27.2298 H   0  0  0  0  0  0  0  0  0  0  0  0
  -17.7297   13.6374   25.3437 N   0  0  0  0  0  0  0  0  0  0  0  0
  -17.5001   14.8819   25.6583 C   0  0  0  0  0  0  0  0  0  0  0  0
  -16.6570   15.3629   25.2263 H   0  0  0  0  0  0  0  0  0  0  0  0
  -18.3327   15.5958   26.5463 C   0  0  0  0  0  0  0  0  0  0  0  0
  -18.1027   16.6057   26.7704 H   0  0  0  0  0  0  0  0  0  0  0  0
  -19.4236   14.9839   27.1091 C   0  0  0  0  0  0  0  0  0  0  0  0
  -20.0503   15.5178   27.7758 H   0  0  0  0  0  0  0  0  0  0  0  0
  1  2  1  0
  2  3  1  0
  2  8  2  0
  3  4  1  0
  3 15  2  0
  4  5  1  0
  4 10  2  0
  5  6  2  0
  6  7  1  0
  6  8  1  0
  8  9  1  0
 10 11  1  0
 11 12  1  0
 11 13  2  0
 13 14  1  0
 13 15  1  0
 15 16  1  0
M  END
$$$$
