
     RDKit          3D

 24 24  0  0  0  0  0  0  0  0999 V2000
  -24.3719   11.4385   26.1993 O   0  0  0  0  0  0  0  0  0  0  0  0
  -25.1742   10.9993   25.8648 H   0  0  0  0  0  0  0  0  0  0  0  0
  -24.7954   12.4369   27.1201 C   0  0  0  0  0  0  0  0  0  0  0  0
  -25.4387   13.1478   26.5926 H   0  0  0  0  0  0  0  0  0  0  0  0
  -25.3846   11.9421   27.8983 H   0  0  0  0  0  0  0  0  0  0  0  0
  -23.5911   13.1400   27.7597 C   0  0  0  0  0  0  0  0  0  0  0  0
  -23.9002   13.7413   28.6228 H   0  0  0  0  0  0  0  0  0  0  0  0
  -23.1873   13.8593   27.0360 H   0  0  0  0  0  0  0  0  0  0  0  0
  -22.5188   12.1855   28.1182 N   0  0  0  0  0  0  0  0  0  0  0  0
  -22.8597   11.2318   29.1736 C   0  0  0  0  0  0  0  0  0  0  0  0
  -23.8190   11.4730   29.6468 H   0  0  0  0  0  0  0  0  0  0  0  0
  -22.1035   11.2429   29.9661 H   0  0  0  0  0  0  0  0  0  0  0  0
  -22.9439   10.2196   28.7636 H   0  0  0  0  0  0  0  0  0  0  0  0
  -21.3036   12.2464   27.4807 C   0  0  0  0  0  0  0  0  0  0  0  0
  -20.9657   11.1363   26.8082 N   0  0  0  0  0  0  0  0  0  0  0  0
  -21.6373   10.3621   26.8546 H   0  0  0  0  0  0  0  0  0  0  0  0
  -19.8044   11.0181   26.0977 C   0  0  0  0  0  0  0  0  0  0  0  0
  -19.6561   10.0875   25.6072 H   0  0  0  0  0  0  0  0  0  0  0  0
  -18.9271   12.0766   26.0611 C   0  0  0  0  0  0  0  0  0  0  0  0
  -18.0202   12.0078   25.5153 H   0  0  0  0  0  0  0  0  0  0  0  0
  -19.2302   13.2597   26.7577 C   0  0  0  0  0  0  0  0  0  0  0  0
  -18.5503   14.0776   26.7407 H   0  0  0  0  0  0  0  0  0  0  0  0
  -20.4056   13.3461   27.4652 C   0  0  0  0  0  0  0  0  0  0  0  0
  -20.6358   14.2239   28.0077 H   0  0  0  0  0  0  0  0  0  0  0  0
  1  2  1  0
  1  3  1  0
  3  4  1  0
  3  5  1  0
  3  6  1  0
  6  7  1  0
  6  8  1  0
  6  9  1  0
  9 10  1  0
  9 14  1  0
 10 11  1  0
 10 12  1  0
 10 13  1  0
 14 15  1  0
 14 23  2  0
 15 16  1  0
 15 17  2  0
 17 18  1  0
 17 19  1  0
 19 20  1  0
 19 21  2  0
 21 22  1  0
 21 23  1  0
 23 24  1  0
M  END
$$$$
