
     RDKit          3D

 20 20  0  0  0  0  0  0  0  0999 V2000
  -15.1938   17.8244   27.2155 S   0  0  0  0  0  0  0  0  0  0  0  0
  -14.7869   18.8826   28.1111 O   0  0  0  0  0  0  0  0  0  0  0  0
  -15.0463   16.4269   27.5597 O   0  0  0  0  0  0  0  0  0  0  0  0
  -14.3765   18.0653   25.7604 N   0  0  0  0  0  0  0  0  0  0  0  0
  -13.3617   18.0828   25.8846 H   0  0  0  0  0  0  0  0  0  0  0  0
  -14.6935   17.4268   25.0263 H   0  0  0  0  0  0  0  0  0  0  0  0
  -16.8630   18.1075   26.7327 C   0  0  0  0  0  0  0  0  0  0  0  0
  -17.6777   17.0395   26.3452 C   0  0  0  0  0  0  0  0  0  0  0  0
  -17.2961   16.0518   26.3150 H   0  0  0  0  0  0  0  0  0  0  0  0
  -18.9983   17.2902   26.0047 C   0  0  0  0  0  0  0  0  0  0  0  0
  -19.7740   16.2623   25.6303 F   0  0  0  0  0  0  0  0  0  0  0  0
  -19.5485   18.5626   26.0426 C   0  0  0  0  0  0  0  0  0  0  0  0
  -20.5638   18.7096   25.7773 H   0  0  0  0  0  0  0  0  0  0  0  0
  -18.7469   19.6310   26.4382 C   0  0  0  0  0  0  0  0  0  0  0  0
  -19.3221   21.0137   26.5369 C   0  0  0  0  0  0  0  0  0  0  0  0
  -20.1292   21.1553   25.8104 H   0  0  0  0  0  0  0  0  0  0  0  0
  -18.5589   21.7696   26.3252 H   0  0  0  0  0  0  0  0  0  0  0  0
  -19.7176   21.1833   27.5426 H   0  0  0  0  0  0  0  0  0  0  0  0
  -17.4137   19.3955   26.7864 C   0  0  0  0  0  0  0  0  0  0  0  0
  -16.8016   20.2033   27.1036 H   0  0  0  0  0  0  0  0  0  0  0  0
  1  2  2  0
  1  3  2  0
  1  4  1  0
  1  7  1  0
  4  5  1  0
  4  6  1  0
  7  8  1  0
  7 19  2  0
  8  9  1  0
  8 10  2  0
 10 11  1  0
 10 12  1  0
 12 13  1  0
 12 14  2  0
 14 15  1  0
 14 19  1  0
 15 16  1  0
 15 17  1  0
 15 18  1  0
 19 20  1  0
M  END
$$$$
