
     RDKit          3D

 29 31  0  0  0  0  0  0  0  0999 V2000
  -20.0399   11.1338   26.1404 O   0  0  0  0  0  0  0  0  0  0  0  0
  -19.6723   12.2847   26.0641 C   0  0  0  0  0  0  0  0  0  0  0  0
  -20.2355   13.2687   26.8178 N   0  0  0  0  0  0  0  0  0  0  0  0
  -19.8780   14.2166   26.6724 H   0  0  0  0  0  0  0  0  0  0  0  0
  -21.2347   13.1952   27.7599 C   0  0  0  0  0  0  0  0  0  0  0  0
  -21.9054   11.6769   28.2721 S   0  0  0  0  0  0  0  0  0  0  0  0
  -22.9422   12.5563   29.3411 C   0  0  0  0  0  0  0  0  0  0  0  0
  -22.6898   13.9218   29.2169 C   0  0  0  0  0  0  0  0  0  0  0  0
  -21.7040   14.2739   28.3034 N   0  0  0  0  0  0  0  0  0  0  0  0
  -23.4275   14.8228   30.0026 C   0  0  0  0  0  0  0  0  0  0  0  0
  -23.2409   15.8606   29.9119 H   0  0  0  0  0  0  0  0  0  0  0  0
  -24.3891   14.3494   30.8838 C   0  0  0  0  0  0  0  0  0  0  0  0
  -24.9425   15.0316   31.4745 H   0  0  0  0  0  0  0  0  0  0  0  0
  -24.6225   12.9597   30.9895 C   0  0  0  0  0  0  0  0  0  0  0  0
  -25.5429   12.3764   31.8243 O   0  0  0  0  0  0  0  0  0  0  0  0
  -25.0983   11.9947   33.1210 C   0  0  0  0  0  0  0  0  0  0  0  0
  -24.7704   12.8660   33.6977 H   0  0  0  0  0  0  0  0  0  0  0  0
  -25.9473   11.5485   33.6475 H   0  0  0  0  0  0  0  0  0  0  0  0
  -24.3092   11.2380   33.0612 H   0  0  0  0  0  0  0  0  0  0  0  0
  -23.9074   12.0559   30.2255 C   0  0  0  0  0  0  0  0  0  0  0  0
  -24.0855   11.0154   30.3052 H   0  0  0  0  0  0  0  0  0  0  0  0
  -18.5759   12.7075   25.1654 C   0  0  0  0  0  0  0  0  0  0  0  0
  -17.6322   12.2085   25.3686 H   0  0  0  0  0  0  0  0  0  0  0  0
  -18.5112   14.1165   24.6250 C   0  0  0  0  0  0  0  0  0  0  0  0
  -19.2988   14.8189   24.8739 H   0  0  0  0  0  0  0  0  0  0  0  0
  -17.5342   14.5699   24.5096 H   0  0  0  0  0  0  0  0  0  0  0  0
  -18.8675   12.9823   23.7100 C   0  0  0  0  0  0  0  0  0  0  0  0
  -18.1332   12.6658   22.9792 H   0  0  0  0  0  0  0  0  0  0  0  0
  -19.8941   12.9071   23.3673 H   0  0  0  0  0  0  0  0  0  0  0  0
  1  2  2  0
  2  3  1  0
  2 22  1  0
  3  4  1  0
  3  5  1  0
  5  6  1  0
  5  9  2  0
  6  7  1  0
  7  8  1  0
  7 20  2  0
  8  9  1  0
  8 10  2  0
 10 11  1  0
 10 12  1  0
 12 13  1  0
 12 14  2  0
 14 15  1  0
 14 20  1  0
 15 16  1  0
 16 17  1  0
 16 18  1  0
 16 19  1  0
 20 21  1  0
 22 23  1  0
 22 24  1  0
 22 27  1  0
 24 25  1  0
 24 26  1  0
 24 27  1  0
 27 28  1  0
 27 29  1  0
M  END
$$$$
