
     RDKit          3D

 25 26  0  0  0  0  0  0  0  0999 V2000
  -17.9146   13.3830   25.6167 O   0  0  0  0  0  0  0  0  0  0  0  0
  -18.2332   14.3214   26.3439 C   0  0  0  0  0  0  0  0  0  0  0  0
  -19.3588   14.2129   27.1238 N   0  0  0  0  0  0  0  0  0  0  0  0
  -19.5469   15.0457   27.6991 H   0  0  0  0  0  0  0  0  0  0  0  0
  -20.2290   13.1408   27.2073 C   0  0  0  0  0  0  0  0  0  0  0  0
  -21.3457   13.1846   27.9620 C   0  0  0  0  0  0  0  0  0  0  0  0
  -21.7556   13.9409   28.5767 H   0  0  0  0  0  0  0  0  0  0  0  0
  -21.9276   11.9718   27.7908 N   0  0  0  0  0  0  0  0  0  0  0  0
  -23.1516   11.4875   28.3749 C   0  0  0  0  0  0  0  0  0  0  0  0
  -23.5728   12.2555   29.0278 H   0  0  0  0  0  0  0  0  0  0  0  0
  -22.9262   10.5881   28.9535 H   0  0  0  0  0  0  0  0  0  0  0  0
  -23.8521   11.2588   27.5678 H   0  0  0  0  0  0  0  0  0  0  0  0
  -21.2149   11.1695   26.9558 N   0  0  0  0  0  0  0  0  0  0  0  0
  -20.1781   11.8864   26.6004 C   0  0  0  0  0  0  0  0  0  0  0  0
  -19.4220   11.5404   25.9442 H   0  0  0  0  0  0  0  0  0  0  0  0
  -17.5032   15.5681   26.4542 C   0  0  0  0  0  0  0  0  0  0  0  0
  -16.2648   15.6931   26.0466 N   0  0  0  0  0  0  0  0  0  0  0  0
  -15.8954   16.9474   26.2897 O   0  0  0  0  0  0  0  0  0  0  0  0
  -16.8961   17.6303   26.8547 C   0  0  0  0  0  0  0  0  0  0  0  0
  -16.6429   19.0410   27.1871 C   0  0  0  0  0  0  0  0  0  0  0  0
  -17.5214   19.5001   27.6503 H   0  0  0  0  0  0  0  0  0  0  0  0
  -16.3978   19.6091   26.2846 H   0  0  0  0  0  0  0  0  0  0  0  0
  -15.8057   19.1272   27.8859 H   0  0  0  0  0  0  0  0  0  0  0  0
  -17.9317   16.7900   26.9766 C   0  0  0  0  0  0  0  0  0  0  0  0
  -18.8848   17.0059   27.3847 H   0  0  0  0  0  0  0  0  0  0  0  0
  1  2  2  0
  2  3  1  0
  2 16  1  0
  3  4  1  0
  3  5  1  0
  5  6  2  0
  5 14  1  0
  6  7  1  0
  6  8  1  0
  8  9  1  0
  8 13  1  0
  9 10  1  0
  9 11  1  0
  9 12  1  0
 13 14  2  0
 14 15  1  0
 16 17  2  0
 16 24  1  0
 17 18  1  0
 18 19  1  0
 19 20  1  0
 19 24  2  0
 20 21  1  0
 20 22  1  0
 20 23  1  0
 24 25  1  0
M  END
$$$$
