
     RDKit          3D

 27 28  0  0  0  0  0  0  0  0999 V2000
  -22.5111    9.9129   28.3449 F   0  0  0  0  0  0  0  0  0  0  0  0
  -22.7055   11.1280   28.8841 C   0  0  0  0  0  0  0  0  0  0  0  0
  -22.1344   12.2537   28.2758 C   0  0  0  0  0  0  0  0  0  0  0  0
  -21.3792   12.0698   27.1257 N   0  0  0  0  0  0  0  0  0  0  0  0
  -21.6737   11.3301   26.4949 H   0  0  0  0  0  0  0  0  0  0  0  0
  -20.2128   12.8444   26.7519 C   0  0  0  0  0  0  0  0  0  0  0  0
  -20.5309   13.8182   26.3584 H   0  0  0  0  0  0  0  0  0  0  0  0
  -19.6117   13.0438   27.6485 H   0  0  0  0  0  0  0  0  0  0  0  0
  -19.3373   12.1961   25.7227 C   0  0  0  0  0  0  0  0  0  0  0  0
  -18.5610   12.8140   24.7979 C   0  0  0  0  0  0  0  0  0  0  0  0
  -18.3176   14.2423   24.4893 C   0  0  0  0  0  0  0  0  0  0  0  0
  -18.3193   14.8441   25.4026 H   0  0  0  0  0  0  0  0  0  0  0  0
  -19.0997   14.6240   23.8252 H   0  0  0  0  0  0  0  0  0  0  0  0
  -17.3494   14.3847   23.9977 H   0  0  0  0  0  0  0  0  0  0  0  0
  -17.9759   11.8103   24.1018 N   0  0  0  0  0  0  0  0  0  0  0  0
  -17.3166   11.9413   23.3116 H   0  0  0  0  0  0  0  0  0  0  0  0
  -18.3477   10.5845   24.5480 N   0  0  0  0  0  0  0  0  0  0  0  0
  -19.1743   10.8286   25.5259 C   0  0  0  0  0  0  0  0  0  0  0  0
  -19.6521   10.0637   26.0835 H   0  0  0  0  0  0  0  0  0  0  0  0
  -22.3428   13.5110   28.8507 C   0  0  0  0  0  0  0  0  0  0  0  0
  -21.9021   14.3708   28.4193 H   0  0  0  0  0  0  0  0  0  0  0  0
  -23.1196   13.6221   30.0043 C   0  0  0  0  0  0  0  0  0  0  0  0
  -23.2770   14.5750   30.4416 H   0  0  0  0  0  0  0  0  0  0  0  0
  -23.6872   12.4904   30.5956 C   0  0  0  0  0  0  0  0  0  0  0  0
  -24.2729   12.5877   31.4730 H   0  0  0  0  0  0  0  0  0  0  0  0
  -23.4771   11.2319   30.0319 C   0  0  0  0  0  0  0  0  0  0  0  0
  -23.8983   10.3639   30.4714 H   0  0  0  0  0  0  0  0  0  0  0  0
  1  2  1  0
  2  3  1  0
  2 26  2  0
  3  4  1  0
  3 20  2  0
  4  5  1  0
  4  6  1  0
  6  7  1  0
  6  8  1  0
  6  9  1  0
  9 10  2  0
  9 18  1  0
 10 11  1  0
 10 15  1  0
 11 12  1  0
 11 13  1  0
 11 14  1  0
 15 16  1  0
 15 17  1  0
 17 18  2  0
 18 19  1  0
 20 21  1  0
 20 22  1  0
 22 23  1  0
 22 24  2  0
 24 25  1  0
 24 26  1  0
 26 27  1  0
M  END
$$$$
