
     RDKit          3D

 24 25  0  0  0  0  0  0  0  0999 V2000
  -18.5343   14.2614   26.0651 S   0  0  0  0  0  0  0  0  0  0  0  0
  -17.1978   14.6123   26.5029 O   0  0  0  0  0  0  0  0  0  0  0  0
  -19.6172   15.2289   26.1330 O   0  0  0  0  0  0  0  0  0  0  0  0
  -19.0630   12.7948   26.9354 C   0  0  0  0  0  0  0  0  0  0  0  0
  -18.9605   11.9454   26.2543 H   0  0  0  0  0  0  0  0  0  0  0  0
  -18.4021   12.6610   27.7961 H   0  0  0  0  0  0  0  0  0  0  0  0
  -20.4806   12.9469   27.3628 C   0  0  0  0  0  0  0  0  0  0  0  0
  -21.4695   12.0805   26.9829 N   0  0  0  0  0  0  0  0  0  0  0  0
  -21.3669   11.2728   26.3521 H   0  0  0  0  0  0  0  0  0  0  0  0
  -22.6228   12.4697   27.5799 C   0  0  0  0  0  0  0  0  0  0  0  0
  -22.2781   13.5828   28.3183 C   0  0  0  0  0  0  0  0  0  0  0  0
  -20.9352   13.8540   28.1621 N   0  0  0  0  0  0  0  0  0  0  0  0
  -23.2658   14.2344   29.0686 C   0  0  0  0  0  0  0  0  0  0  0  0
  -23.0089   15.0901   29.6361 H   0  0  0  0  0  0  0  0  0  0  0  0
  -24.5655   13.7443   29.0492 C   0  0  0  0  0  0  0  0  0  0  0  0
  -25.3206   14.2296   29.6120 H   0  0  0  0  0  0  0  0  0  0  0  0
  -24.8935   12.6005   28.2845 C   0  0  0  0  0  0  0  0  0  0  0  0
  -25.8923   12.2424   28.2845 H   0  0  0  0  0  0  0  0  0  0  0  0
  -23.9234   11.9494   27.5395 C   0  0  0  0  0  0  0  0  0  0  0  0
  -24.1554   11.0923   26.9614 H   0  0  0  0  0  0  0  0  0  0  0  0
  -18.4185   13.7012   24.3850 C   0  0  0  0  0  0  0  0  0  0  0  0
  -17.6799   12.8996   24.3314 H   0  0  0  0  0  0  0  0  0  0  0  0
  -18.1031   14.5434   23.7657 H   0  0  0  0  0  0  0  0  0  0  0  0
  -19.3996   13.3468   24.0617 H   0  0  0  0  0  0  0  0  0  0  0  0
  1  2  2  0
  1  3  2  0
  1  4  1  0
  1 21  1  0
  4  5  1  0
  4  6  1  0
  4  7  1  0
  7  8  1  0
  7 12  2  0
  8  9  1  0
  8 10  1  0
 10 11  1  0
 10 19  2  0
 11 12  1  0
 11 13  2  0
 13 14  1  0
 13 15  1  0
 15 16  1  0
 15 17  2  0
 17 18  1  0
 17 19  1  0
 19 20  1  0
 21 22  1  0
 21 23  1  0
 21 24  1  0
M  END
$$$$
