
     RDKit          3D

 18 18  0  0  0  0  0  0  0  0999 V2000
  -19.8761   14.2462   26.9830 O   0  0  0  0  0  0  0  0  0  0  0  0
  -18.8384   14.1556   26.3429 C   0  0  0  0  0  0  0  0  0  0  0  0
  -17.9206   15.1580   26.2025 O   0  0  0  0  0  0  0  0  0  0  0  0
  -18.3303   16.4624   26.6420 C   0  0  0  0  0  0  0  0  0  0  0  0
  -18.7322   16.3474   27.6543 H   0  0  0  0  0  0  0  0  0  0  0  0
  -19.1389   16.8567   26.0165 H   0  0  0  0  0  0  0  0  0  0  0  0
  -17.1397   17.4011   26.6687 C   0  0  0  0  0  0  0  0  0  0  0  0
  -16.7202   17.5319   25.6661 H   0  0  0  0  0  0  0  0  0  0  0  0
  -16.3409   16.9923   27.2961 H   0  0  0  0  0  0  0  0  0  0  0  0
  -17.4274   18.3817   27.0582 H   0  0  0  0  0  0  0  0  0  0  0  0
  -18.4543   12.9457   25.6388 C   0  0  0  0  0  0  0  0  0  0  0  0
  -17.8718   12.8514   24.4093 C   0  0  0  0  0  0  0  0  0  0  0  0
  -17.5754   13.5924   23.7123 H   0  0  0  0  0  0  0  0  0  0  0  0
  -17.7071   11.5382   24.1799 N   0  0  0  0  0  0  0  0  0  0  0  0
  -17.2864   11.1291   23.3224 H   0  0  0  0  0  0  0  0  0  0  0  0
  -18.1605   10.7777   25.2135 N   0  0  0  0  0  0  0  0  0  0  0  0
  -18.6096   11.6333   26.0881 C   0  0  0  0  0  0  0  0  0  0  0  0
  -19.0349   11.3500   27.0181 H   0  0  0  0  0  0  0  0  0  0  0  0
  1  2  2  0
  2  3  1  0
  2 11  1  0
  3  4  1  0
  4  5  1  0
  4  6  1  0
  4  7  1  0
  7  8  1  0
  7  9  1  0
  7 10  1  0
 11 12  2  0
 11 17  1  0
 12 13  1  0
 12 14  1  0
 14 15  1  0
 14 16  1  0
 16 17  2  0
 17 18  1  0
M  END
$$$$
