
     RDKit          3D

 31 32  0  0  0  0  0  0  0  0999 V2000
  -20.7246   14.1980   27.8543 O   0  0  0  0  0  0  0  0  0  0  0  0
  -20.6621   13.2680   27.0608 C   0  0  0  0  0  0  0  0  0  0  0  0
  -21.5758   12.2682   27.2126 N   0  0  0  0  0  0  0  0  0  0  0  0
  -21.6351   11.5106   26.5219 H   0  0  0  0  0  0  0  0  0  0  0  0
  -22.5158   12.2450   28.3151 C   0  0  0  0  0  0  0  0  0  0  0  0
  -21.9785   12.5009   29.2357 H   0  0  0  0  0  0  0  0  0  0  0  0
  -22.9047   11.2262   28.4237 H   0  0  0  0  0  0  0  0  0  0  0  0
  -23.6077   13.2178   28.0460 C   0  0  0  0  0  0  0  0  0  0  0  0
  -23.8429   14.3827   28.6948 C   0  0  0  0  0  0  0  0  0  0  0  0
  -23.3380   14.8587   29.4932 H   0  0  0  0  0  0  0  0  0  0  0  0
  -24.9402   14.9159   28.1126 N   0  0  0  0  0  0  0  0  0  0  0  0
  -25.6084   16.1587   28.4365 C   0  0  0  0  0  0  0  0  0  0  0  0
  -24.9128   16.9775   28.2221 H   0  0  0  0  0  0  0  0  0  0  0  0
  -26.4642   16.2600   27.7609 H   0  0  0  0  0  0  0  0  0  0  0  0
  -26.0548   16.2107   29.8864 C   0  0  0  0  0  0  0  0  0  0  0  0
  -25.2013   16.1046   30.5649 H   0  0  0  0  0  0  0  0  0  0  0  0
  -26.7614   15.4052   30.1120 H   0  0  0  0  0  0  0  0  0  0  0  0
  -26.5456   17.1652   30.0992 H   0  0  0  0  0  0  0  0  0  0  0  0
  -25.4091   14.1280   27.1122 N   0  0  0  0  0  0  0  0  0  0  0  0
  -24.6008   13.1043   27.0810 C   0  0  0  0  0  0  0  0  0  0  0  0
  -24.7064   12.3037   26.3930 H   0  0  0  0  0  0  0  0  0  0  0  0
  -19.6893   13.2224   25.9523 C   0  0  0  0  0  0  0  0  0  0  0  0
  -19.1547   14.4333   25.4945 C   0  0  0  0  0  0  0  0  0  0  0  0
  -19.4586   15.3457   25.9452 H   0  0  0  0  0  0  0  0  0  0  0  0
  -18.2693   14.4934   24.4978 N   0  0  0  0  0  0  0  0  0  0  0  0
  -17.8618   13.3715   23.9079 C   0  0  0  0  0  0  0  0  0  0  0  0
  -17.1572   13.4519   23.1185 H   0  0  0  0  0  0  0  0  0  0  0  0
  -18.3357   12.1244   24.3063 C   0  0  0  0  0  0  0  0  0  0  0  0
  -17.9890   11.2491   23.8220 H   0  0  0  0  0  0  0  0  0  0  0  0
  -19.2589   12.0383   25.3404 C   0  0  0  0  0  0  0  0  0  0  0  0
  -19.6159   11.0927   25.6559 H   0  0  0  0  0  0  0  0  0  0  0  0
  1  2  2  0
  2  3  1  0
  2 22  1  0
  3  4  1  0
  3  5  1  0
  5  6  1  0
  5  7  1  0
  5  8  1  0
  8  9  2  0
  8 20  1  0
  9 10  1  0
  9 11  1  0
 11 12  1  0
 11 19  1  0
 12 13  1  0
 12 14  1  0
 12 15  1  0
 15 16  1  0
 15 17  1  0
 15 18  1  0
 19 20  2  0
 20 21  1  0
 22 23  1  0
 22 30  2  0
 23 24  1  0
 23 25  2  0
 25 26  1  0
 26 27  1  0
 26 28  2  0
 28 29  1  0
 28 30  1  0
 30 31  1  0
M  END
$$$$
