
     RDKit          3D

 22 22  0  0  0  0  0  0  0  0999 V2000
  -15.7925   16.2502   28.0877 O   0  0  0  0  0  0  0  0  0  0  0  0
  -16.3907   15.6094   27.6656 H   0  0  0  0  0  0  0  0  0  0  0  0
  -15.4181   17.1922   27.0864 C   0  0  0  0  0  0  0  0  0  0  0  0
  -14.7895   17.9638   27.5441 H   0  0  0  0  0  0  0  0  0  0  0  0
  -14.8299   16.6577   26.3337 H   0  0  0  0  0  0  0  0  0  0  0  0
  -16.6642   17.7921   26.4383 C   0  0  0  0  0  0  0  0  0  0  0  0
  -16.3543   18.4399   25.6091 H   0  0  0  0  0  0  0  0  0  0  0  0
  -17.2875   16.9941   26.0145 H   0  0  0  0  0  0  0  0  0  0  0  0
  -17.4907   18.5913   27.3962 C   0  0  0  0  0  0  0  0  0  0  0  0
  -18.6859   18.2491   27.9275 C   0  0  0  0  0  0  0  0  0  0  0  0
  -19.2921   17.3911   27.7998 H   0  0  0  0  0  0  0  0  0  0  0  0
  -19.0411   19.2731   28.7341 N   0  0  0  0  0  0  0  0  0  0  0  0
  -20.2357   19.3976   29.5408 C   0  0  0  0  0  0  0  0  0  0  0  0
  -20.6154   20.4178   29.4202 H   0  0  0  0  0  0  0  0  0  0  0  0
  -20.9847   18.7093   29.1345 H   0  0  0  0  0  0  0  0  0  0  0  0
  -19.9703   19.1024   31.0063 C   0  0  0  0  0  0  0  0  0  0  0  0
  -19.2229   19.7905   31.4181 H   0  0  0  0  0  0  0  0  0  0  0  0
  -19.5953   18.0827   31.1437 H   0  0  0  0  0  0  0  0  0  0  0  0
  -20.8907   19.2098   31.5883 H   0  0  0  0  0  0  0  0  0  0  0  0
  -18.1127   20.2619   28.7324 N   0  0  0  0  0  0  0  0  0  0  0  0
  -17.1781   19.8412   27.9238 C   0  0  0  0  0  0  0  0  0  0  0  0
  -16.2995   20.3970   27.7041 H   0  0  0  0  0  0  0  0  0  0  0  0
  1  2  1  0
  1  3  1  0
  3  4  1  0
  3  5  1  0
  3  6  1  0
  6  7  1  0
  6  8  1  0
  6  9  1  0
  9 10  2  0
  9 21  1  0
 10 11  1  0
 10 12  1  0
 12 13  1  0
 12 20  1  0
 13 14  1  0
 13 15  1  0
 13 16  1  0
 16 17  1  0
 16 18  1  0
 16 19  1  0
 20 21  2  0
 21 22  1  0
M  END
$$$$
