
     RDKit          3D

 30 31  0  0  0  0  0  0  0  0999 V2000
  -24.0855   11.2411   30.9989 F   0  0  0  0  0  0  0  0  0  0  0  0
  -23.3009   11.6032   29.9736 C   0  0  0  0  0  0  0  0  0  0  0  0
  -21.9267   11.6683   30.1701 C   0  0  0  0  0  0  0  0  0  0  0  0
  -21.5125   11.4381   31.1168 H   0  0  0  0  0  0  0  0  0  0  0  0
  -21.1132   12.0452   29.1063 C   0  0  0  0  0  0  0  0  0  0  0  0
  -20.0661   12.1215   29.2345 H   0  0  0  0  0  0  0  0  0  0  0  0
  -21.6841   12.3463   27.8619 C   0  0  0  0  0  0  0  0  0  0  0  0
  -20.8730   12.7242   26.7997 N   0  0  0  0  0  0  0  0  0  0  0  0
  -20.6060   14.1341   26.4841 C   0  0  0  0  0  0  0  0  0  0  0  0
  -21.0815   14.3803   25.5269 H   0  0  0  0  0  0  0  0  0  0  0  0
  -21.0075   14.8172   27.2407 H   0  0  0  0  0  0  0  0  0  0  0  0
  -19.0894   14.3655   26.3964 C   0  0  0  0  0  0  0  0  0  0  0  0
  -18.6348   14.2304   27.3854 H   0  0  0  0  0  0  0  0  0  0  0  0
  -18.8917   15.3974   26.0883 H   0  0  0  0  0  0  0  0  0  0  0  0
  -18.4346   13.4029   25.5011 N   0  0  0  0  0  0  0  0  0  0  0  0
  -17.6557   13.8736   24.4795 C   0  0  0  0  0  0  0  0  0  0  0  0
  -17.6032   15.0458   24.1477 O   0  0  0  0  0  0  0  0  0  0  0  0
  -16.9106   12.9698   23.8384 N   0  0  0  0  0  0  0  0  0  0  0  0
  -17.4322   12.3807   23.1806 H   0  0  0  0  0  0  0  0  0  0  0  0
  -15.9628   13.2623   23.5912 H   0  0  0  0  0  0  0  0  0  0  0  0
  -18.7282   11.9934   25.8165 C   0  0  0  0  0  0  0  0  0  0  0  0
  -18.3118   11.3148   25.0693 H   0  0  0  0  0  0  0  0  0  0  0  0
  -18.2514   11.7759   26.7790 H   0  0  0  0  0  0  0  0  0  0  0  0
  -20.2438   11.7468   25.9016 C   0  0  0  0  0  0  0  0  0  0  0  0
  -20.4339   10.7082   26.1925 H   0  0  0  0  0  0  0  0  0  0  0  0
  -20.6849   11.8712   24.9044 H   0  0  0  0  0  0  0  0  0  0  0  0
  -23.0760   12.2785   27.6855 C   0  0  0  0  0  0  0  0  0  0  0  0
  -23.5128   12.4972   26.7487 H   0  0  0  0  0  0  0  0  0  0  0  0
  -23.8888   11.9023   28.7504 C   0  0  0  0  0  0  0  0  0  0  0  0
  -24.9397   11.8404   28.6387 H   0  0  0  0  0  0  0  0  0  0  0  0
  1  2  1  0
  2  3  1  0
  2 29  2  0
  3  4  1  0
  3  5  2  0
  5  6  1  0
  5  7  1  0
  7  8  1  0
  7 27  2  0
  8  9  1  0
  8 24  1  0
  9 10  1  0
  9 11  1  0
  9 12  1  0
 12 13  1  0
 12 14  1  0
 12 15  1  0
 15 16  1  0
 15 21  1  0
 16 17  2  0
 16 18  1  0
 18 19  1  0
 18 20  1  0
 21 22  1  0
 21 23  1  0
 21 24  1  0
 24 25  1  0
 24 26  1  0
 27 28  1  0
 27 29  1  0
 29 30  1  0
M  END
$$$$
