
     RDKit          3D

 16 16  0  0  0  0  0  0  0  0999 V2000
  -20.5008   19.6945   26.0145 Br  0  0  0  0  0  0  0  0  0  0  0  0
  -18.7412   19.0704   26.0307 C   0  0  0  0  0  0  0  0  0  0  0  0
  -17.6032   19.7933   25.9757 C   0  0  0  0  0  0  0  0  0  0  0  0
  -17.4316   20.8362   25.9195 H   0  0  0  0  0  0  0  0  0  0  0  0
  -16.5948   18.8923   26.0185 N   0  0  0  0  0  0  0  0  0  0  0  0
  -15.1679   19.1447   25.9773 C   0  0  0  0  0  0  0  0  0  0  0  0
  -15.0383   20.2194   25.8082 H   0  0  0  0  0  0  0  0  0  0  0  0
  -14.7650   18.8951   26.9652 H   0  0  0  0  0  0  0  0  0  0  0  0
  -14.4827   18.3436   24.8815 C   0  0  0  0  0  0  0  0  0  0  0  0
  -13.4072   18.5419   24.8952 H   0  0  0  0  0  0  0  0  0  0  0  0
  -14.8752   18.5876   23.8887 H   0  0  0  0  0  0  0  0  0  0  0  0
  -14.6644   16.9505   25.1165 O   0  0  0  0  0  0  0  0  0  0  0  0
  -15.6234   16.7836   25.1239 H   0  0  0  0  0  0  0  0  0  0  0  0
  -17.0582   17.6153   26.1050 N   0  0  0  0  0  0  0  0  0  0  0  0
  -18.3604   17.7354   26.1094 C   0  0  0  0  0  0  0  0  0  0  0  0
  -19.0228   16.9106   26.1672 H   0  0  0  0  0  0  0  0  0  0  0  0
  1  2  1  0
  2  3  2  0
  2 15  1  0
  3  4  1  0
  3  5  1  0
  5  6  1  0
  5 14  1  0
  6  7  1  0
  6  8  1  0
  6  9  1  0
  9 10  1  0
  9 11  1  0
  9 12  1  0
 12 13  1  0
 14 15  2  0
 15 16  1  0
M  END
$$$$
