
     RDKit          3D

 32 33  0  0  0  0  0  0  0  0999 V2000
  -23.0242   14.5766   29.3921 O   0  0  0  0  0  0  0  0  0  0  0  0
  -23.7463   13.5994   29.4201 C   0  0  0  0  0  0  0  0  0  0  0  0
  -23.4091   12.4616   28.7435 N   0  0  0  0  0  0  0  0  0  0  0  0
  -24.0934   11.7042   28.8348 H   0  0  0  0  0  0  0  0  0  0  0  0
  -22.2851   12.2228   27.9674 C   0  0  0  0  0  0  0  0  0  0  0  0
  -21.3093   13.0946   27.6394 C   0  0  0  0  0  0  0  0  0  0  0  0
  -21.1637   14.1141   27.8824 H   0  0  0  0  0  0  0  0  0  0  0  0
  -20.4496   12.3828   26.8718 N   0  0  0  0  0  0  0  0  0  0  0  0
  -19.2280   12.8462   26.2484 C   0  0  0  0  0  0  0  0  0  0  0  0
  -18.6820   11.9648   25.8954 H   0  0  0  0  0  0  0  0  0  0  0  0
  -19.5050   13.4444   25.3733 H   0  0  0  0  0  0  0  0  0  0  0  0
  -18.3728   13.6664   27.1978 C   0  0  0  0  0  0  0  0  0  0  0  0
  -18.0757   13.0776   28.0720 H   0  0  0  0  0  0  0  0  0  0  0  0
  -18.9163   14.5467   27.5580 H   0  0  0  0  0  0  0  0  0  0  0  0
  -17.4650   14.0088   26.6922 H   0  0  0  0  0  0  0  0  0  0  0  0
  -20.8517   11.0878   26.7102 N   0  0  0  0  0  0  0  0  0  0  0  0
  -21.9722   11.0004   27.3799 C   0  0  0  0  0  0  0  0  0  0  0  0
  -22.5429   10.1112   27.4517 H   0  0  0  0  0  0  0  0  0  0  0  0
  -25.0629   13.5787   30.1822 C   0  0  0  0  0  0  0  0  0  0  0  0
  -24.9463   12.8545   30.9983 H   0  0  0  0  0  0  0  0  0  0  0  0
  -25.4287   14.9511   30.7629 C   0  0  0  0  0  0  0  0  0  0  0  0
  -25.1903   15.0111   31.8302 H   0  0  0  0  0  0  0  0  0  0  0  0
  -24.8893   15.7662   30.2685 H   0  0  0  0  0  0  0  0  0  0  0  0
  -26.9254   15.0967   30.5274 C   0  0  0  0  0  0  0  0  0  0  0  0
  -27.4836   14.5973   31.3281 H   0  0  0  0  0  0  0  0  0  0  0  0
  -27.2410   16.1431   30.4925 H   0  0  0  0  0  0  0  0  0  0  0  0
  -27.1487   14.3798   29.2077 C   0  0  0  0  0  0  0  0  0  0  0  0
  -26.8291   15.0129   28.3728 H   0  0  0  0  0  0  0  0  0  0  0  0
  -28.1981   14.1155   29.0509 H   0  0  0  0  0  0  0  0  0  0  0  0
  -26.2554   13.1499   29.3142 C   0  0  0  0  0  0  0  0  0  0  0  0
  -25.9738   12.7671   28.3283 H   0  0  0  0  0  0  0  0  0  0  0  0
  -26.8044   12.3500   29.8280 H   0  0  0  0  0  0  0  0  0  0  0  0
  1  2  2  0
  2  3  1  0
  2 19  1  0
  3  4  1  0
  3  5  1  0
  5  6  2  0
  5 17  1  0
  6  7  1  0
  6  8  1  0
  8  9  1  0
  8 16  1  0
  9 10  1  0
  9 11  1  0
  9 12  1  0
 12 13  1  0
 12 14  1  0
 12 15  1  0
 16 17  2  0
 17 18  1  0
 19 20  1  0
 19 21  1  0
 19 30  1  0
 21 22  1  0
 21 23  1  0
 21 24  1  0
 24 25  1  0
 24 26  1  0
 24 27  1  0
 27 28  1  0
 27 29  1  0
 27 30  1  0
 30 31  1  0
 30 32  1  0
M  END
$$$$
