
     RDKit          3D

 29 30  0  0  0  0  0  0  0  0999 V2000
  -19.0718   11.5344   25.6065 C   0  0  0  0  0  0  0  0  0  0  0  0
  -20.0801   11.5811   26.0324 H   0  0  0  0  0  0  0  0  0  0  0  0
  -18.3653   11.3244   26.4186 H   0  0  0  0  0  0  0  0  0  0  0  0
  -19.0232   10.6816   24.9204 H   0  0  0  0  0  0  0  0  0  0  0  0
  -18.7091   12.8269   24.8825 C   0  0  0  0  0  0  0  0  0  0  0  0
  -17.3984   12.6926   24.3321 O   0  0  0  0  0  0  0  0  0  0  0  0
  -17.2367   13.4707   23.7748 H   0  0  0  0  0  0  0  0  0  0  0  0
  -18.7970   14.0148   25.7875 C   0  0  0  0  0  0  0  0  0  0  0  0
  -19.7963   14.2689   26.7210 C   0  0  0  0  0  0  0  0  0  0  0  0
  -20.6360   13.6522   26.9112 H   0  0  0  0  0  0  0  0  0  0  0  0
  -19.5779   15.3861   27.3574 N   0  0  0  0  0  0  0  0  0  0  0  0
  -18.4159   15.8710   26.8316 N   0  0  0  0  0  0  0  0  0  0  0  0
  -17.8487   17.1152   27.2939 C   0  0  0  0  0  0  0  0  0  0  0  0
  -17.2600   16.8915   28.1934 H   0  0  0  0  0  0  0  0  0  0  0  0
  -16.9523   17.8182   26.2764 C   0  0  0  0  0  0  0  0  0  0  0  0
  -15.9773   17.3305   26.1732 H   0  0  0  0  0  0  0  0  0  0  0  0
  -17.4139   17.8420   25.2815 H   0  0  0  0  0  0  0  0  0  0  0  0
  -16.8286   19.2402   26.8148 C   0  0  0  0  0  0  0  0  0  0  0  0
  -15.9250   19.3375   27.4275 H   0  0  0  0  0  0  0  0  0  0  0  0
  -16.7514   19.9683   26.0011 H   0  0  0  0  0  0  0  0  0  0  0  0
  -18.0672   19.4802   27.6788 C   0  0  0  0  0  0  0  0  0  0  0  0
  -18.6531   20.3332   27.3219 H   0  0  0  0  0  0  0  0  0  0  0  0
  -17.7634   19.7009   28.7092 H   0  0  0  0  0  0  0  0  0  0  0  0
  -18.8801   18.1906   27.6305 C   0  0  0  0  0  0  0  0  0  0  0  0
  -19.6481   18.2694   26.8506 H   0  0  0  0  0  0  0  0  0  0  0  0
  -19.3941   17.9921   28.5768 H   0  0  0  0  0  0  0  0  0  0  0  0
  -17.9282   15.0485   25.8793 C   0  0  0  0  0  0  0  0  0  0  0  0
  -17.0330   15.2503   25.3499 H   0  0  0  0  0  0  0  0  0  0  0  0
  -19.3944   12.9700   24.0383 H   0  0  0  0  0  0  0  0  0  0  0  0
  1  2  1  0
  1  3  1  0
  1  4  1  0
  1  5  1  0
  5  6  1  0
  5  8  1  0
  5 29  1  0
  6  7  1  0
  8  9  1  0
  8 27  2  0
  9 10  1  0
  9 11  2  0
 11 12  1  0
 12 13  1  0
 12 27  1  0
 13 14  1  0
 13 15  1  0
 13 24  1  0
 15 16  1  0
 15 17  1  0
 15 18  1  0
 18 19  1  0
 18 20  1  0
 18 21  1  0
 21 22  1  0
 21 23  1  0
 21 24  1  0
 24 25  1  0
 24 26  1  0
 27 28  1  0
M  END
$$$$
