
     RDKit          3D

 19 19  0  0  0  0  0  0  0  0999 V2000
  -21.6300   11.6294   28.1747 Br  0  0  0  0  0  0  0  0  0  0  0  0
  -20.3064   12.8278   27.6183 C   0  0  0  0  0  0  0  0  0  0  0  0
  -20.5927   13.8312   26.7438 C   0  0  0  0  0  0  0  0  0  0  0  0
  -21.5657   13.9628   26.3532 H   0  0  0  0  0  0  0  0  0  0  0  0
  -19.5792   14.7430   26.3195 C   0  0  0  0  0  0  0  0  0  0  0  0
  -19.7686   15.6627   25.5130 O   0  0  0  0  0  0  0  0  0  0  0  0
  -18.2929   14.5774   26.8426 N   0  0  0  0  0  0  0  0  0  0  0  0
  -17.2231   15.4929   26.4419 C   0  0  0  0  0  0  0  0  0  0  0  0
  -16.3120   14.9182   26.2349 H   0  0  0  0  0  0  0  0  0  0  0  0
  -17.4835   15.9817   25.4940 H   0  0  0  0  0  0  0  0  0  0  0  0
  -16.9267   16.5396   27.5144 C   0  0  0  0  0  0  0  0  0  0  0  0
  -17.8383   17.0432   27.8520 H   0  0  0  0  0  0  0  0  0  0  0  0
  -16.2502   17.3070   27.1236 H   0  0  0  0  0  0  0  0  0  0  0  0
  -16.2997   15.9331   28.6385 O   0  0  0  0  0  0  0  0  0  0  0  0
  -16.2466   16.6069   29.3399 H   0  0  0  0  0  0  0  0  0  0  0  0
  -18.0007   13.5487   27.7314 C   0  0  0  0  0  0  0  0  0  0  0  0
  -16.9939   13.4972   28.0675 H   0  0  0  0  0  0  0  0  0  0  0  0
  -18.9821   12.6850   28.1196 C   0  0  0  0  0  0  0  0  0  0  0  0
  -18.7694   11.8983   28.7973 H   0  0  0  0  0  0  0  0  0  0  0  0
  1  2  1  0
  2  3  2  0
  2 18  1  0
  3  4  1  0
  3  5  1  0
  5  6  2  0
  5  7  1  0
  7  8  1  0
  7 16  1  0
  8  9  1  0
  8 10  1  0
  8 11  1  0
 11 12  1  0
 11 13  1  0
 11 14  1  0
 14 15  1  0
 16 17  1  0
 16 18  2  0
 18 19  1  0
M  END
$$$$
