
     RDKit          3D

 23 24  0  0  0  0  0  0  0  0999 V2000
  -17.9367   15.0490   26.6435 C   0  0  0  0  0  0  0  0  0  0  0  0
  -18.8264   15.3834   26.1035 H   0  0  0  0  0  0  0  0  0  0  0  0
  -18.2257   14.5643   27.5788 H   0  0  0  0  0  0  0  0  0  0  0  0
  -17.3705   14.3571   26.0155 H   0  0  0  0  0  0  0  0  0  0  0  0
  -17.1045   16.1781   26.9579 N   0  0  0  0  0  0  0  0  0  0  0  0
  -15.8296   15.9840   27.3264 N   0  0  0  0  0  0  0  0  0  0  0  0
  -15.2989   17.1590   27.5696 N   0  0  0  0  0  0  0  0  0  0  0  0
  -16.2573   18.0808   27.3427 C   0  0  0  0  0  0  0  0  0  0  0  0
  -17.3920   17.4808   26.9491 C   0  0  0  0  0  0  0  0  0  0  0  0
  -18.6680   18.1482   26.5808 C   0  0  0  0  0  0  0  0  0  0  0  0
  -18.7667   18.1126   25.4882 H   0  0  0  0  0  0  0  0  0  0  0  0
  -19.5214   17.6022   26.9943 H   0  0  0  0  0  0  0  0  0  0  0  0
  -18.6430   19.6310   27.0257 C   0  0  0  0  0  0  0  0  0  0  0  0
  -19.1813   19.7806   28.4522 C   0  0  0  0  0  0  0  0  0  0  0  0
  -19.0722   18.7904   29.2091 O   0  0  0  0  0  0  0  0  0  0  0  0
  -19.7313   20.8602   28.7587 O   0  0  0  0  0  0  0  0  0  0  0  0
  -17.2547   20.2864   26.8055 C   0  0  0  0  0  0  0  0  0  0  0  0
  -17.0521   20.2957   25.7255 H   0  0  0  0  0  0  0  0  0  0  0  0
  -17.2602   21.3347   27.1265 H   0  0  0  0  0  0  0  0  0  0  0  0
  -16.1019   19.5417   27.5153 C   0  0  0  0  0  0  0  0  0  0  0  0
  -16.1000   19.7789   28.5852 H   0  0  0  0  0  0  0  0  0  0  0  0
  -15.1419   19.8760   27.1056 H   0  0  0  0  0  0  0  0  0  0  0  0
  -19.3672   20.1745   26.4035 H   0  0  0  0  0  0  0  0  0  0  0  0
  1  2  1  0
  1  3  1  0
  1  4  1  0
  1  5  1  0
  5  6  1  0
  5  9  1  0
  6  7  2  0
  7  8  1  0
  8  9  2  0
  8 20  1  0
  9 10  1  0
 10 11  1  0
 10 12  1  0
 10 13  1  0
 13 14  1  0
 13 17  1  0
 13 23  1  0
 14 15  1  0
 14 16  2  0
 17 18  1  0
 17 19  1  0
 17 20  1  0
 20 21  1  0
 20 22  1  0
M  END
$$$$
