
     RDKit          3D

 14 14  0  0  0  0  0  0  0  0999 V2000
  -20.1436   14.4652   27.6791 O   0  0  0  0  0  0  0  0  0  0  0  0
  -20.0850   13.2148   27.5166 C   0  0  0  0  0  0  0  0  0  0  0  0
  -20.5597   12.4448   28.4032 O   0  0  0  0  0  0  0  0  0  0  0  0
  -19.4758   12.6633   26.3130 C   0  0  0  0  0  0  0  0  0  0  0  0
  -18.7849   13.3515   25.3295 C   0  0  0  0  0  0  0  0  0  0  0  0
  -18.5349   14.8314   25.3328 C   0  0  0  0  0  0  0  0  0  0  0  0
  -17.9702   15.1394   24.4469 H   0  0  0  0  0  0  0  0  0  0  0  0
  -17.9512   15.1230   26.2117 H   0  0  0  0  0  0  0  0  0  0  0  0
  -19.4811   15.3828   25.3255 H   0  0  0  0  0  0  0  0  0  0  0  0
  -18.3218   12.5200   24.2970 C   0  0  0  0  0  0  0  0  0  0  0  0
  -17.7727   12.8714   23.4624 H   0  0  0  0  0  0  0  0  0  0  0  0
  -18.6506   11.2080   24.4773 C   0  0  0  0  0  0  0  0  0  0  0  0
  -18.4186   10.3920   23.8432 H   0  0  0  0  0  0  0  0  0  0  0  0
  -19.5418   10.9660   25.9296 S   0  0  0  0  0  0  0  0  0  0  0  0
  1  2  1  0
  2  3  2  0
  2  4  1  0
  4  5  2  0
  4 14  1  0
  5  6  1  0
  5 10  1  0
  6  7  1  0
  6  8  1  0
  6  9  1  0
 10 11  1  0
 10 12  2  0
 12 13  1  0
 12 14  1  0
M  END
$$$$
