
     RDKit          3D

 32 33  0  0  0  0  0  0  0  0999 V2000
  -17.2521   18.5101   25.3146 O   0  0  0  0  0  0  0  0  0  0  0  0
  -16.4028   18.1120   26.0981 C   0  0  0  0  0  0  0  0  0  0  0  0
  -15.3592   18.8455   26.5671 O   0  0  0  0  0  0  0  0  0  0  0  0
  -15.0648   20.0133   25.7972 C   0  0  0  0  0  0  0  0  0  0  0  0
  -15.9270   20.6863   25.7772 H   0  0  0  0  0  0  0  0  0  0  0  0
  -14.7664   19.7343   24.7811 H   0  0  0  0  0  0  0  0  0  0  0  0
  -14.2291   20.5314   26.2748 H   0  0  0  0  0  0  0  0  0  0  0  0
  -16.3353   16.8551   26.6161 N   0  0  0  0  0  0  0  0  0  0  0  0
  -15.5070   16.6961   27.1972 H   0  0  0  0  0  0  0  0  0  0  0  0
  -17.2238   15.7703   26.4518 C   0  0  0  0  0  0  0  0  0  0  0  0
  -18.0447   15.6170   25.3320 C   0  0  0  0  0  0  0  0  0  0  0  0
  -18.0335   16.3312   24.5520 H   0  0  0  0  0  0  0  0  0  0  0  0
  -18.8909   14.5164   25.2506 C   0  0  0  0  0  0  0  0  0  0  0  0
  -19.5148   14.4017   24.4010 H   0  0  0  0  0  0  0  0  0  0  0  0
  -18.9288   13.5700   26.2766 C   0  0  0  0  0  0  0  0  0  0  0  0
  -19.8672   12.3872   26.1908 C   0  0  0  0  0  0  0  0  0  0  0  0
  -19.2945   11.4594   26.3215 H   0  0  0  0  0  0  0  0  0  0  0  0
  -20.2834   12.3135   25.1773 H   0  0  0  0  0  0  0  0  0  0  0  0
  -20.9922   12.4411   27.1932 C   0  0  0  0  0  0  0  0  0  0  0  0
  -22.2829   12.7895   26.8127 C   0  0  0  0  0  0  0  0  0  0  0  0
  -22.5066   13.0084   25.8018 H   0  0  0  0  0  0  0  0  0  0  0  0
  -23.2924   12.8523   27.7679 C   0  0  0  0  0  0  0  0  0  0  0  0
  -24.2801   13.1186   27.4859 H   0  0  0  0  0  0  0  0  0  0  0  0
  -23.0625   12.5868   29.0519 N   0  0  0  0  0  0  0  0  0  0  0  0
  -21.8331   12.2534   29.4404 C   0  0  0  0  0  0  0  0  0  0  0  0
  -21.6746   12.0499   30.4699 H   0  0  0  0  0  0  0  0  0  0  0  0
  -20.7764   12.1720   28.5392 C   0  0  0  0  0  0  0  0  0  0  0  0
  -19.8097   11.9098   28.8852 H   0  0  0  0  0  0  0  0  0  0  0  0
  -18.1121   13.7414   27.3971 C   0  0  0  0  0  0  0  0  0  0  0  0
  -18.1342   13.0332   28.1850 H   0  0  0  0  0  0  0  0  0  0  0  0
  -17.2620   14.8384   27.4886 C   0  0  0  0  0  0  0  0  0  0  0  0
  -16.6418   14.9608   28.3384 H   0  0  0  0  0  0  0  0  0  0  0  0
  1  2  2  0
  2  3  1  0
  2  8  1  0
  3  4  1  0
  4  5  1  0
  4  6  1  0
  4  7  1  0
  8  9  1  0
  8 10  1  0
 10 11  1  0
 10 31  2  0
 11 12  1  0
 11 13  2  0
 13 14  1  0
 13 15  1  0
 15 16  1  0
 15 29  2  0
 16 17  1  0
 16 18  1  0
 16 19  1  0
 19 20  1  0
 19 27  2  0
 20 21  1  0
 20 22  2  0
 22 23  1  0
 22 24  1  0
 24 25  2  0
 25 26  1  0
 25 27  1  0
 27 28  1  0
 29 30  1  0
 29 31  1  0
 31 32  1  0
M  END
$$$$
