
     RDKit          3D

 24 25  0  0  0  0  0  0  0  0999 V2000
  -19.5523   15.0679   27.2625 F   0  0  0  0  0  0  0  0  0  0  0  0
  -19.5242   13.9615   26.5059 C   0  0  0  0  0  0  0  0  0  0  0  0
  -20.1131   12.7588   26.9374 C   0  0  0  0  0  0  0  0  0  0  0  0
  -20.7261   12.5761   28.1705 N   0  0  0  0  0  0  0  0  0  0  0  0
  -20.2601   12.9696   28.9811 H   0  0  0  0  0  0  0  0  0  0  0  0
  -21.9660   11.8819   28.4594 C   0  0  0  0  0  0  0  0  0  0  0  0
  -22.0406   10.8965   27.9976 H   0  0  0  0  0  0  0  0  0  0  0  0
  -22.0098   11.7129   29.5421 H   0  0  0  0  0  0  0  0  0  0  0  0
  -23.1571   12.6648   28.0392 C   0  0  0  0  0  0  0  0  0  0  0  0
  -23.3641   13.0000   26.7452 N   0  0  0  0  0  0  0  0  0  0  0  0
  -22.7168   12.7659   25.9660 H   0  0  0  0  0  0  0  0  0  0  0  0
  -24.5123   13.7054   26.5729 N   0  0  0  0  0  0  0  0  0  0  0  0
  -25.0221   13.8073   27.7706 C   0  0  0  0  0  0  0  0  0  0  0  0
  -25.9331   14.3103   27.9748 H   0  0  0  0  0  0  0  0  0  0  0  0
  -24.2142   13.1766   28.7091 C   0  0  0  0  0  0  0  0  0  0  0  0
  -24.3955   13.1111   29.7519 H   0  0  0  0  0  0  0  0  0  0  0  0
  -20.0812   11.6541   26.0834 C   0  0  0  0  0  0  0  0  0  0  0  0
  -20.5361   10.7441   26.3798 H   0  0  0  0  0  0  0  0  0  0  0  0
  -19.4459   11.7489   24.8467 C   0  0  0  0  0  0  0  0  0  0  0  0
  -19.4199   10.9048   24.2036 H   0  0  0  0  0  0  0  0  0  0  0  0
  -18.8478   12.9437   24.4419 C   0  0  0  0  0  0  0  0  0  0  0  0
  -18.3692   13.0031   23.4974 H   0  0  0  0  0  0  0  0  0  0  0  0
  -18.8910   14.0599   25.2751 C   0  0  0  0  0  0  0  0  0  0  0  0
  -18.4519   14.9765   24.9750 H   0  0  0  0  0  0  0  0  0  0  0  0
  1  2  1  0
  2  3  1  0
  2 23  2  0
  3  4  1  0
  3 17  2  0
  4  5  1  0
  4  6  1  0
  6  7  1  0
  6  8  1  0
  6  9  1  0
  9 10  1  0
  9 15  2  0
 10 11  1  0
 10 12  1  0
 12 13  2  0
 13 14  1  0
 13 15  1  0
 15 16  1  0
 17 18  1  0
 17 19  1  0
 19 20  1  0
 19 21  2  0
 21 22  1  0
 21 23  1  0
 23 24  1  0
M  END
$$$$
