
     RDKit          3D

 18 18  0  0  0  0  0  0  0  0999 V2000
  -22.4204   11.5145   27.4525 O   0  0  0  0  0  0  0  0  0  0  0  0
  -21.8385   12.5809   27.5872 C   0  0  0  0  0  0  0  0  0  0  0  0
  -22.2936   13.4635   28.5156 N   0  0  0  0  0  0  0  0  0  0  0  0
  -21.7530   14.3201   28.6759 H   0  0  0  0  0  0  0  0  0  0  0  0
  -23.4860   13.2277   29.3052 C   0  0  0  0  0  0  0  0  0  0  0  0
  -24.2632   12.8227   28.6475 H   0  0  0  0  0  0  0  0  0  0  0  0
  -23.2476   12.4655   30.0546 H   0  0  0  0  0  0  0  0  0  0  0  0
  -23.9728   14.4960   29.9780 C   0  0  0  0  0  0  0  0  0  0  0  0
  -24.2134   15.2646   29.2361 H   0  0  0  0  0  0  0  0  0  0  0  0
  -23.2067   14.9044   30.6455 H   0  0  0  0  0  0  0  0  0  0  0  0
  -24.8714   14.2950   30.5690 H   0  0  0  0  0  0  0  0  0  0  0  0
  -20.6759   12.9428   26.8301 C   0  0  0  0  0  0  0  0  0  0  0  0
  -20.3205   12.2873   25.7258 N   0  0  0  0  0  0  0  0  0  0  0  0
  -20.8291   11.4782   25.3177 H   0  0  0  0  0  0  0  0  0  0  0  0
  -19.2079   12.8097   25.2011 N   0  0  0  0  0  0  0  0  0  0  0  0
  -18.8392   13.8146   25.9699 N   0  0  0  0  0  0  0  0  0  0  0  0
  -19.7326   13.9026   26.9667 C   0  0  0  0  0  0  0  0  0  0  0  0
  -19.6795   14.6308   27.7352 H   0  0  0  0  0  0  0  0  0  0  0  0
  1  2  2  0
  2  3  1  0
  2 12  1  0
  3  4  1  0
  3  5  1  0
  5  6  1  0
  5  7  1  0
  5  8  1  0
  8  9  1  0
  8 10  1  0
  8 11  1  0
 12 13  1  0
 12 17  2  0
 13 14  1  0
 13 15  1  0
 15 16  2  0
 16 17  1  0
 17 18  1  0
M  END
$$$$
