
     RDKit          3D

 28 29  0  0  0  0  0  0  0  0999 V2000
  -13.3958   18.8884   26.9935 O   0  0  0  0  0  0  0  0  0  0  0  0
  -14.4836   18.4870   27.3729 C   0  0  0  0  0  0  0  0  0  0  0  0
  -14.9636   18.9074   28.5263 N   0  0  0  0  0  0  0  0  0  0  0  0
  -14.3902   19.5529   29.0438 H   0  0  0  0  0  0  0  0  0  0  0  0
  -15.8544   18.5916   28.8678 H   0  0  0  0  0  0  0  0  0  0  0  0
  -15.3496   17.5230   26.6065 C   0  0  0  0  0  0  0  0  0  0  0  0
  -14.8033   17.1942   25.7154 H   0  0  0  0  0  0  0  0  0  0  0  0
  -15.5189   16.6393   27.2335 H   0  0  0  0  0  0  0  0  0  0  0  0
  -16.6721   18.1692   26.2160 C   0  0  0  0  0  0  0  0  0  0  0  0
  -16.7606   18.2639   25.1282 H   0  0  0  0  0  0  0  0  0  0  0  0
  -16.7556   19.1847   26.6223 H   0  0  0  0  0  0  0  0  0  0  0  0
  -17.8056   17.4068   26.7045 N   0  0  0  0  0  0  0  0  0  0  0  0
  -18.8133   17.8587   27.5250 C   0  0  0  0  0  0  0  0  0  0  0  0
  -18.8765   19.2470   28.0535 C   0  0  0  0  0  0  0  0  0  0  0  0
  -19.8107   19.4050   28.6007 H   0  0  0  0  0  0  0  0  0  0  0  0
  -18.8362   19.9774   27.2407 H   0  0  0  0  0  0  0  0  0  0  0  0
  -18.0476   19.4346   28.7427 H   0  0  0  0  0  0  0  0  0  0  0  0
  -19.6822   16.9350   27.7696 N   0  0  0  0  0  0  0  0  0  0  0  0
  -19.2438   15.8199   27.0905 C   0  0  0  0  0  0  0  0  0  0  0  0
  -18.0697   16.0997   26.4211 C   0  0  0  0  0  0  0  0  0  0  0  0
  -17.3920   15.1491   25.6437 C   0  0  0  0  0  0  0  0  0  0  0  0
  -16.4895   15.3887   25.1433 H   0  0  0  0  0  0  0  0  0  0  0  0
  -17.9443   13.8807   25.5542 C   0  0  0  0  0  0  0  0  0  0  0  0
  -17.4648   13.1334   24.9775 H   0  0  0  0  0  0  0  0  0  0  0  0
  -19.1475   13.5749   26.2300 C   0  0  0  0  0  0  0  0  0  0  0  0
  -19.5565   12.5991   26.1513 H   0  0  0  0  0  0  0  0  0  0  0  0
  -19.7958   14.5354   26.9947 C   0  0  0  0  0  0  0  0  0  0  0  0
  -20.6952   14.3163   27.5054 H   0  0  0  0  0  0  0  0  0  0  0  0
  1  2  2  0
  2  3  1  0
  2  6  1  0
  3  4  1  0
  3  5  1  0
  6  7  1  0
  6  8  1  0
  6  9  1  0
  9 10  1  0
  9 11  1  0
  9 12  1  0
 12 13  1  0
 12 20  1  0
 13 14  1  0
 13 18  2  0
 14 15  1  0
 14 16  1  0
 14 17  1  0
 18 19  1  0
 19 20  1  0
 19 27  2  0
 20 21  2  0
 21 22  1  0
 21 23  1  0
 23 24  1  0
 23 25  2  0
 25 26  1  0
 25 27  1  0
 27 28  1  0
M  END
$$$$
