
     RDKit          3D

 29 30  0  0  0  0  0  0  0  0999 V2000
  -26.0320   13.2028   29.6933 F   0  0  0  0  0  0  0  0  0  0  0  0
  -24.8179   12.8760   29.2250 C   0  0  0  0  0  0  0  0  0  0  0  0
  -23.8717   12.3244   30.0917 C   0  0  0  0  0  0  0  0  0  0  0  0
  -24.1893   12.0737   31.5443 C   0  0  0  0  0  0  0  0  0  0  0  0
  -23.7263   11.1355   31.8762 H   0  0  0  0  0  0  0  0  0  0  0  0
  -25.2707   11.9011   31.6295 H   0  0  0  0  0  0  0  0  0  0  0  0
  -23.7668   13.2079   32.4722 C   0  0  0  0  0  0  0  0  0  0  0  0
  -24.0657   14.5927   31.9929 C   0  0  0  0  0  0  0  0  0  0  0  0
  -23.2094   15.4199   31.7535 O   0  0  0  0  0  0  0  0  0  0  0  0
  -25.3733   14.9188   31.8450 N   0  0  0  0  0  0  0  0  0  0  0  0
  -26.0614   14.2246   32.1009 H   0  0  0  0  0  0  0  0  0  0  0  0
  -25.8162   16.2025   31.3629 C   0  0  0  0  0  0  0  0  0  0  0  0
  -25.5292   16.9727   32.0836 H   0  0  0  0  0  0  0  0  0  0  0  0
  -25.3466   16.4118   30.3986 H   0  0  0  0  0  0  0  0  0  0  0  0
  -26.9033   16.1794   31.2527 H   0  0  0  0  0  0  0  0  0  0  0  0
  -22.5799   13.0467   33.4269 C   0  0  0  0  0  0  0  0  0  0  0  0
  -21.9985   13.9296   33.6768 H   0  0  0  0  0  0  0  0  0  0  0  0
  -21.9900   12.1384   33.4175 H   0  0  0  0  0  0  0  0  0  0  0  0
  -23.9665   12.9562   33.9685 C   0  0  0  0  0  0  0  0  0  0  0  0
  -24.3268   13.7728   34.5847 H   0  0  0  0  0  0  0  0  0  0  0  0
  -24.3158   11.9832   34.2952 H   0  0  0  0  0  0  0  0  0  0  0  0
  -22.6158   12.0083   29.5723 C   0  0  0  0  0  0  0  0  0  0  0  0
  -21.8694   11.5917   30.1987 H   0  0  0  0  0  0  0  0  0  0  0  0
  -22.3295   12.2410   28.2265 C   0  0  0  0  0  0  0  0  0  0  0  0
  -21.3703   11.9964   27.8423 H   0  0  0  0  0  0  0  0  0  0  0  0
  -23.2923   12.7911   27.3811 C   0  0  0  0  0  0  0  0  0  0  0  0
  -23.0660   12.9646   26.3593 H   0  0  0  0  0  0  0  0  0  0  0  0
  -24.5491   13.1131   27.8826 C   0  0  0  0  0  0  0  0  0  0  0  0
  -25.2933   13.5325   27.2569 H   0  0  0  0  0  0  0  0  0  0  0  0
  1  2  1  0
  2  3  1  0
  2 28  2  0
  3  4  1  0
  3 22  2  0
  4  5  1  0
  4  6  1  0
  4  7  1  0
  7  8  1  0
  7 16  1  0
  7 19  1  0
  8  9  2  0
  8 10  1  0
 10 11  1  0
 10 12  1  0
 12 13  1  0
 12 14  1  0
 12 15  1  0
 16 17  1  0
 16 18  1  0
 16 19  1  0
 19 20  1  0
 19 21  1  0
 22 23  1  0
 22 24  1  0
 24 25  1  0
 24 26  2  0
 26 27  1  0
 26 28  1  0
 28 29  1  0
M  END
$$$$
