
     RDKit          3D

 17 18  0  0  0  0  0  0  0  0999 V2000
  -18.3125   16.8039   25.7970 Br  0  0  0  0  0  0  0  0  0  0  0  0
  -18.6229   14.9400   25.8687 C   0  0  0  0  0  0  0  0  0  0  0  0
  -18.1698   14.1201   24.8380 C   0  0  0  0  0  0  0  0  0  0  0  0
  -17.6517   14.5193   24.0060 H   0  0  0  0  0  0  0  0  0  0  0  0
  -18.4233   12.7585   24.9358 C   0  0  0  0  0  0  0  0  0  0  0  0
  -18.0703   11.7626   24.0372 N   0  0  0  0  0  0  0  0  0  0  0  0
  -17.5632   11.8734   23.1509 H   0  0  0  0  0  0  0  0  0  0  0  0
  -18.4865   10.5482   24.4675 C   0  0  0  0  0  0  0  0  0  0  0  0
  -18.2715    9.5528   23.8163 O   0  0  0  0  0  0  0  0  0  0  0  0
  -19.2034   10.7133   25.8054 C   0  0  0  0  0  0  0  0  0  0  0  0
  -20.2431   10.3915   25.7124 H   0  0  0  0  0  0  0  0  0  0  0  0
  -18.6682   10.1635   26.5832 H   0  0  0  0  0  0  0  0  0  0  0  0
  -19.0958   12.1940   26.0007 C   0  0  0  0  0  0  0  0  0  0  0  0
  -19.5467   13.0120   27.0310 C   0  0  0  0  0  0  0  0  0  0  0  0
  -20.0649   12.5992   27.8596 H   0  0  0  0  0  0  0  0  0  0  0  0
  -19.3080   14.3873   26.9616 C   0  0  0  0  0  0  0  0  0  0  0  0
  -19.6466   15.0207   27.7404 H   0  0  0  0  0  0  0  0  0  0  0  0
  1  2  1  0
  2  3  1  0
  2 16  2  0
  3  4  1  0
  3  5  2  0
  5  6  1  0
  5 13  1  0
  6  7  1  0
  6  8  1  0
  8  9  2  0
  8 10  1  0
 10 11  1  0
 10 12  1  0
 10 13  1  0
 13 14  2  0
 14 15  1  0
 14 16  1  0
 16 17  1  0
M  END
$$$$
