
     RDKit          3D

 35 37  0  0  0  0  0  0  0  0999 V2000
  -19.8921   11.0130   24.8327 F   0  0  0  0  0  0  0  0  0  0  0  0
  -19.3970   12.1597   25.3197 C   0  0  0  0  0  0  0  0  0  0  0  0
  -19.8939   12.6488   26.5213 C   0  0  0  0  0  0  0  0  0  0  0  0
  -20.6507   12.1184   27.0381 H   0  0  0  0  0  0  0  0  0  0  0  0
  -19.3819   13.8398   27.0276 C   0  0  0  0  0  0  0  0  0  0  0  0
  -19.7568   14.2138   27.9398 H   0  0  0  0  0  0  0  0  0  0  0  0
  -18.3845   14.5333   26.3187 C   0  0  0  0  0  0  0  0  0  0  0  0
  -17.8821   15.7316   26.8103 N   0  0  0  0  0  0  0  0  0  0  0  0
  -18.6835   16.9633   26.8682 C   0  0  0  0  0  0  0  0  0  0  0  0
  -19.6705   16.8594   26.4065 H   0  0  0  0  0  0  0  0  0  0  0  0
  -18.8604   17.2021   27.9243 H   0  0  0  0  0  0  0  0  0  0  0  0
  -17.9251   18.1262   26.2088 C   0  0  0  0  0  0  0  0  0  0  0  0
  -18.4942   19.0512   26.3268 H   0  0  0  0  0  0  0  0  0  0  0  0
  -17.8177   17.9419   25.1336 H   0  0  0  0  0  0  0  0  0  0  0  0
  -16.5681   18.2511   26.7579 N   0  0  0  0  0  0  0  0  0  0  0  0
  -16.0402   19.4015   27.2949 C   0  0  0  0  0  0  0  0  0  0  0  0
  -14.8954   19.3833   27.7083 O   0  0  0  0  0  0  0  0  0  0  0  0
  -16.8676   20.6275   27.3533 C   0  0  0  0  0  0  0  0  0  0  0  0
  -17.0152   21.1066   26.3902 H   0  0  0  0  0  0  0  0  0  0  0  0
  -16.7455   21.5688   28.5309 C   0  0  0  0  0  0  0  0  0  0  0  0
  -16.0600   21.3073   29.3293 H   0  0  0  0  0  0  0  0  0  0  0  0
  -16.8145   22.6323   28.3373 H   0  0  0  0  0  0  0  0  0  0  0  0
  -17.9826   20.7398   28.3670 C   0  0  0  0  0  0  0  0  0  0  0  0
  -18.1348   19.9233   29.0644 H   0  0  0  0  0  0  0  0  0  0  0  0
  -18.8938   21.2419   28.0645 H   0  0  0  0  0  0  0  0  0  0  0  0
  -15.7782   17.0152   26.6878 C   0  0  0  0  0  0  0  0  0  0  0  0
  -15.6112   16.8075   25.6246 H   0  0  0  0  0  0  0  0  0  0  0  0
  -14.7964   17.1383   27.1556 H   0  0  0  0  0  0  0  0  0  0  0  0
  -16.5141   15.8336   27.3435 C   0  0  0  0  0  0  0  0  0  0  0  0
  -16.5685   15.9818   28.4283 H   0  0  0  0  0  0  0  0  0  0  0  0
  -15.9237   14.9294   27.1586 H   0  0  0  0  0  0  0  0  0  0  0  0
  -17.8855   14.0042   25.1171 C   0  0  0  0  0  0  0  0  0  0  0  0
  -17.1028   14.4970   24.6039 H   0  0  0  0  0  0  0  0  0  0  0  0
  -18.4002   12.8148   24.6101 C   0  0  0  0  0  0  0  0  0  0  0  0
  -18.0357   12.4063   23.7045 H   0  0  0  0  0  0  0  0  0  0  0  0
  1  2  1  0
  2  3  1  0
  2 34  2  0
  3  4  1  0
  3  5  2  0
  5  6  1  0
  5  7  1  0
  7  8  1  0
  7 32  2  0
  8  9  1  0
  8 29  1  0
  9 10  1  0
  9 11  1  0
  9 12  1  0
 12 13  1  0
 12 14  1  0
 12 15  1  0
 15 16  1  0
 15 26  1  0
 16 17  2  0
 16 18  1  0
 18 19  1  0
 18 20  1  0
 18 23  1  0
 20 21  1  0
 20 22  1  0
 20 23  1  0
 23 24  1  0
 23 25  1  0
 26 27  1  0
 26 28  1  0
 26 29  1  0
 29 30  1  0
 29 31  1  0
 32 33  1  0
 32 34  1  0
 34 35  1  0
M  END
$$$$
