
     RDKit          3D

 23 24  0  0  0  0  0  0  0  0999 V2000
  -22.6416   11.0166   27.5920 C   0  0  0  0  0  0  0  0  0  0  0  0
  -22.6196   10.7926   28.6617 H   0  0  0  0  0  0  0  0  0  0  0  0
  -21.6809   11.4292   27.2754 H   0  0  0  0  0  0  0  0  0  0  0  0
  -22.8657   10.1037   27.0353 H   0  0  0  0  0  0  0  0  0  0  0  0
  -23.6635   11.9900   27.3190 N   0  0  0  0  0  0  0  0  0  0  0  0
  -24.0859   12.1773   26.0600 N   0  0  0  0  0  0  0  0  0  0  0  0
  -24.9996   13.1186   26.0791 N   0  0  0  0  0  0  0  0  0  0  0  0
  -25.1409   13.5070   27.3632 C   0  0  0  0  0  0  0  0  0  0  0  0
  -24.3163   12.8010   28.1532 C   0  0  0  0  0  0  0  0  0  0  0  0
  -24.1891   12.9130   29.6298 C   0  0  0  0  0  0  0  0  0  0  0  0
  -24.6829   12.0422   30.0801 H   0  0  0  0  0  0  0  0  0  0  0  0
  -23.1376   12.8717   29.9299 H   0  0  0  0  0  0  0  0  0  0  0  0
  -24.8971   14.1954   30.1311 C   0  0  0  0  0  0  0  0  0  0  0  0
  -23.9313   15.3846   30.1348 C   0  0  0  0  0  0  0  0  0  0  0  0
  -23.1141   15.4520   31.0797 O   0  0  0  0  0  0  0  0  0  0  0  0
  -24.0451   16.2323   29.2235 O   0  0  0  0  0  0  0  0  0  0  0  0
  -26.2248   14.4659   29.3766 C   0  0  0  0  0  0  0  0  0  0  0  0
  -26.9142   13.6391   29.5971 H   0  0  0  0  0  0  0  0  0  0  0  0
  -26.7087   15.3771   29.7476 H   0  0  0  0  0  0  0  0  0  0  0  0
  -26.0534   14.5672   27.8443 C   0  0  0  0  0  0  0  0  0  0  0  0
  -25.6416   15.5460   27.5733 H   0  0  0  0  0  0  0  0  0  0  0  0
  -27.0322   14.4797   27.3590 H   0  0  0  0  0  0  0  0  0  0  0  0
  -25.1446   14.0430   31.1907 H   0  0  0  0  0  0  0  0  0  0  0  0
  1  2  1  0
  1  3  1  0
  1  4  1  0
  1  5  1  0
  5  6  1  0
  5  9  1  0
  6  7  2  0
  7  8  1  0
  8  9  2  0
  8 20  1  0
  9 10  1  0
 10 11  1  0
 10 12  1  0
 10 13  1  0
 13 14  1  0
 13 17  1  0
 13 23  1  0
 14 15  1  0
 14 16  2  0
 17 18  1  0
 17 19  1  0
 17 20  1  0
 20 21  1  0
 20 22  1  0
M  END
$$$$
