
     RDKit          3D

 16 16  0  0  0  0  0  0  0  0999 V2000
  -22.4754   13.6093   28.7457 Br  0  0  0  0  0  0  0  0  0  0  0  0
  -21.3069   12.9331   27.4559 C   0  0  0  0  0  0  0  0  0  0  0  0
  -20.3767   13.6038   26.7450 C   0  0  0  0  0  0  0  0  0  0  0  0
  -20.0874   14.6219   26.7444 H   0  0  0  0  0  0  0  0  0  0  0  0
  -19.7899   12.6814   25.9478 N   0  0  0  0  0  0  0  0  0  0  0  0
  -18.7316   12.8815   24.9776 C   0  0  0  0  0  0  0  0  0  0  0  0
  -19.2103   13.1924   24.0424 H   0  0  0  0  0  0  0  0  0  0  0  0
  -18.1082   13.7056   25.3420 H   0  0  0  0  0  0  0  0  0  0  0  0
  -17.9116   11.6187   24.7657 C   0  0  0  0  0  0  0  0  0  0  0  0
  -17.6849   11.1580   25.7313 H   0  0  0  0  0  0  0  0  0  0  0  0
  -16.9720   11.8231   24.2415 H   0  0  0  0  0  0  0  0  0  0  0  0
  -18.6637   10.6763   24.0074 O   0  0  0  0  0  0  0  0  0  0  0  0
  -18.6408   10.9706   23.0799 H   0  0  0  0  0  0  0  0  0  0  0  0
  -20.3164   11.4401   26.1348 N   0  0  0  0  0  0  0  0  0  0  0  0
  -21.2365   11.6052   27.0494 C   0  0  0  0  0  0  0  0  0  0  0  0
  -21.8391   10.8169   27.4207 H   0  0  0  0  0  0  0  0  0  0  0  0
  1  2  1  0
  2  3  2  0
  2 15  1  0
  3  4  1  0
  3  5  1  0
  5  6  1  0
  5 14  1  0
  6  7  1  0
  6  8  1  0
  6  9  1  0
  9 10  1  0
  9 11  1  0
  9 12  1  0
 12 13  1  0
 14 15  2  0
 15 16  1  0
M  END
$$$$
