
     RDKit          3D

 23 23  0  0  0  0  0  0  0  0999 V2000
  -18.3730   14.7319   25.2436 S   0  0  0  0  0  0  0  0  0  0  0  0
  -17.2672   14.8999   24.3143 O   0  0  0  0  0  0  0  0  0  0  0  0
  -19.5820   15.5212   25.1056 O   0  0  0  0  0  0  0  0  0  0  0  0
  -17.7374   14.9726   26.8819 C   0  0  0  0  0  0  0  0  0  0  0  0
  -16.8902   14.3016   27.0377 H   0  0  0  0  0  0  0  0  0  0  0  0
  -18.5283   14.7739   27.6077 H   0  0  0  0  0  0  0  0  0  0  0  0
  -17.4091   16.0100   26.9689 H   0  0  0  0  0  0  0  0  0  0  0  0
  -18.8445   13.0250   25.2386 C   0  0  0  0  0  0  0  0  0  0  0  0
  -19.8308   12.5045   26.0944 C   0  0  0  0  0  0  0  0  0  0  0  0
  -20.4670   13.3454   27.0041 N   0  0  0  0  0  0  0  0  0  0  0  0
  -20.3587   14.3592   26.8563 H   0  0  0  0  0  0  0  0  0  0  0  0
  -21.2350   12.9172   28.1482 C   0  0  0  0  0  0  0  0  0  0  0  0
  -22.0703   12.2765   27.8463 H   0  0  0  0  0  0  0  0  0  0  0  0
  -21.6534   13.7924   28.6552 H   0  0  0  0  0  0  0  0  0  0  0  0
  -20.6073   12.3845   28.8691 H   0  0  0  0  0  0  0  0  0  0  0  0
  -20.1915   11.1530   26.0123 C   0  0  0  0  0  0  0  0  0  0  0  0
  -20.9528   10.7602   26.6323 H   0  0  0  0  0  0  0  0  0  0  0  0
  -19.5485   10.3148   25.1113 C   0  0  0  0  0  0  0  0  0  0  0  0
  -19.8161    9.2907   25.0561 H   0  0  0  0  0  0  0  0  0  0  0  0
  -18.5502   10.8150   24.2818 C   0  0  0  0  0  0  0  0  0  0  0  0
  -18.0548   10.1708   23.5995 H   0  0  0  0  0  0  0  0  0  0  0  0
  -18.2053   12.1617   24.3453 C   0  0  0  0  0  0  0  0  0  0  0  0
  -17.4469   12.5377   23.7063 H   0  0  0  0  0  0  0  0  0  0  0  0
  1  2  2  0
  1  3  2  0
  1  4  1  0
  1  8  1  0
  4  5  1  0
  4  6  1  0
  4  7  1  0
  8  9  1  0
  8 22  2  0
  9 10  1  0
  9 16  2  0
 10 11  1  0
 10 12  1  0
 12 13  1  0
 12 14  1  0
 12 15  1  0
 16 17  1  0
 16 18  1  0
 18 19  1  0
 18 20  2  0
 20 21  1  0
 20 22  1  0
 22 23  1  0
M  END
$$$$
