
     RDKit          3D

 19 19  0  0  0  0  0  0  0  0999 V2000
  -25.1783   15.7878   27.3113 O   0  0  0  0  0  0  0  0  0  0  0  0
  -24.7934   15.0146   28.1854 C   0  0  0  0  0  0  0  0  0  0  0  0
  -24.6215   15.5489   29.4610 N   0  0  0  0  0  0  0  0  0  0  0  0
  -24.5847   16.9935   29.6439 C   0  0  0  0  0  0  0  0  0  0  0  0
  -23.7131   17.2500   30.2547 H   0  0  0  0  0  0  0  0  0  0  0  0
  -25.4971   17.3027   30.1619 H   0  0  0  0  0  0  0  0  0  0  0  0
  -24.5134   17.5318   28.6957 H   0  0  0  0  0  0  0  0  0  0  0  0
  -24.4999   14.7580   30.6786 C   0  0  0  0  0  0  0  0  0  0  0  0
  -25.0840   15.2323   31.4740 H   0  0  0  0  0  0  0  0  0  0  0  0
  -23.4469   14.7290   30.9728 H   0  0  0  0  0  0  0  0  0  0  0  0
  -24.8805   13.7436   30.5434 H   0  0  0  0  0  0  0  0  0  0  0  0
  -24.5332   13.6117   27.9189 C   0  0  0  0  0  0  0  0  0  0  0  0
  -25.0983   12.9069   26.8982 C   0  0  0  0  0  0  0  0  0  0  0  0
  -25.8027   13.1899   26.1598 H   0  0  0  0  0  0  0  0  0  0  0  0
  -24.5745   11.6714   26.9648 N   0  0  0  0  0  0  0  0  0  0  0  0
  -24.8060   10.8920   26.3200 H   0  0  0  0  0  0  0  0  0  0  0  0
  -23.6835   11.5476   27.9860 N   0  0  0  0  0  0  0  0  0  0  0  0
  -23.6589   12.7226   28.5480 C   0  0  0  0  0  0  0  0  0  0  0  0
  -23.0361   12.9524   29.3765 H   0  0  0  0  0  0  0  0  0  0  0  0
  1  2  2  0
  2  3  1  0
  2 12  1  0
  3  4  1  0
  3  8  1  0
  4  5  1  0
  4  6  1  0
  4  7  1  0
  8  9  1  0
  8 10  1  0
  8 11  1  0
 12 13  2  0
 12 18  1  0
 13 14  1  0
 13 15  1  0
 15 16  1  0
 15 17  1  0
 17 18  2  0
 18 19  1  0
M  END
$$$$
