
     RDKit          3D

 24 25  0  0  0  0  0  0  0  0999 V2000
  -17.8287   13.4325   23.1916 F   0  0  0  0  0  0  0  0  0  0  0  0
  -18.1172   13.0537   24.4448 C   0  0  0  0  0  0  0  0  0  0  0  0
  -17.9560   13.9289   25.5346 C   0  0  0  0  0  0  0  0  0  0  0  0
  -17.4537   15.2209   25.4438 N   0  0  0  0  0  0  0  0  0  0  0  0
  -17.4766   15.6626   24.5309 H   0  0  0  0  0  0  0  0  0  0  0  0
  -16.8873   16.0370   26.5001 C   0  0  0  0  0  0  0  0  0  0  0  0
  -17.6127   16.3614   27.2474 H   0  0  0  0  0  0  0  0  0  0  0  0
  -16.1522   15.4254   27.0372 H   0  0  0  0  0  0  0  0  0  0  0  0
  -16.2164   17.2525   25.9700 C   0  0  0  0  0  0  0  0  0  0  0  0
  -16.9046   18.3903   25.7224 N   0  0  0  0  0  0  0  0  0  0  0  0
  -17.9300   18.4986   25.8554 H   0  0  0  0  0  0  0  0  0  0  0  0
  -16.1058   19.3836   25.2521 N   0  0  0  0  0  0  0  0  0  0  0  0
  -14.9119   18.8571   25.2091 C   0  0  0  0  0  0  0  0  0  0  0  0
  -14.0535   19.3863   24.8806 H   0  0  0  0  0  0  0  0  0  0  0  0
  -14.9353   17.5377   25.6452 C   0  0  0  0  0  0  0  0  0  0  0  0
  -14.1043   16.8822   25.7097 H   0  0  0  0  0  0  0  0  0  0  0  0
  -18.3115   13.4826   26.8093 C   0  0  0  0  0  0  0  0  0  0  0  0
  -18.2173   14.1318   27.6416 H   0  0  0  0  0  0  0  0  0  0  0  0
  -18.7830   12.1831   26.9851 C   0  0  0  0  0  0  0  0  0  0  0  0
  -19.0469   11.8471   27.9569 H   0  0  0  0  0  0  0  0  0  0  0  0
  -18.9174   11.3198   25.8963 C   0  0  0  0  0  0  0  0  0  0  0  0
  -19.2793   10.3339   26.0434 H   0  0  0  0  0  0  0  0  0  0  0  0
  -18.5866   11.7592   24.6158 C   0  0  0  0  0  0  0  0  0  0  0  0
  -18.6955   11.1184   23.7789 H   0  0  0  0  0  0  0  0  0  0  0  0
  1  2  1  0
  2  3  1  0
  2 23  2  0
  3  4  1  0
  3 17  2  0
  4  5  1  0
  4  6  1  0
  6  7  1  0
  6  8  1  0
  6  9  1  0
  9 10  1  0
  9 15  2  0
 10 11  1  0
 10 12  1  0
 12 13  2  0
 13 14  1  0
 13 15  1  0
 15 16  1  0
 17 18  1  0
 17 19  1  0
 19 20  1  0
 19 21  2  0
 21 22  1  0
 21 23  1  0
 23 24  1  0
M  END
$$$$
