
     RDKit          3D

 27 28  0  0  0  0  0  0  0  0999 V2000
  -22.5594   16.6080   31.5739 O   0  0  0  0  0  0  0  0  0  0  0  0
  -22.4999   17.6686   32.5180 C   0  0  0  0  0  0  0  0  0  0  0  0
  -21.7427   17.4091   33.2647 H   0  0  0  0  0  0  0  0  0  0  0  0
  -23.4550   17.7860   33.0415 H   0  0  0  0  0  0  0  0  0  0  0  0
  -22.1892   18.6047   32.0425 H   0  0  0  0  0  0  0  0  0  0  0  0
  -23.4653   16.7001   30.5382 C   0  0  0  0  0  0  0  0  0  0  0  0
  -24.4081   15.6654   30.4557 C   0  0  0  0  0  0  0  0  0  0  0  0
  -25.3310   15.7061   29.3998 C   0  0  0  0  0  0  0  0  0  0  0  0
  -26.3301   14.7478   29.1058 N   0  0  0  0  0  0  0  0  0  0  0  0
  -26.9773   15.0056   28.3510 H   0  0  0  0  0  0  0  0  0  0  0  0
  -26.6326   13.5181   29.5996 C   0  0  0  0  0  0  0  0  0  0  0  0
  -27.5683   12.9999   29.0357 O   0  0  0  0  0  0  0  0  0  0  0  0
  -25.8364   12.8438   30.6618 C   0  0  0  0  0  0  0  0  0  0  0  0
  -26.4291   11.9933   31.0205 H   0  0  0  0  0  0  0  0  0  0  0  0
  -24.9159   12.4419   30.2242 H   0  0  0  0  0  0  0  0  0  0  0  0
  -25.5763   13.7785   31.8147 C   0  0  0  0  0  0  0  0  0  0  0  0
  -26.4449   14.4146   32.0267 H   0  0  0  0  0  0  0  0  0  0  0  0
  -25.3914   13.1794   32.7141 H   0  0  0  0  0  0  0  0  0  0  0  0
  -24.3430   14.6204   31.5491 C   0  0  0  0  0  0  0  0  0  0  0  0
  -23.4852   13.9661   31.3450 H   0  0  0  0  0  0  0  0  0  0  0  0
  -24.1381   15.1241   32.5029 H   0  0  0  0  0  0  0  0  0  0  0  0
  -25.3098   16.7435   28.4646 C   0  0  0  0  0  0  0  0  0  0  0  0
  -26.0143   16.7589   27.6732 H   0  0  0  0  0  0  0  0  0  0  0  0
  -24.3694   17.7595   28.5697 C   0  0  0  0  0  0  0  0  0  0  0  0
  -24.3571   18.5469   27.8607 H   0  0  0  0  0  0  0  0  0  0  0  0
  -23.4443   17.7432   29.6073 C   0  0  0  0  0  0  0  0  0  0  0  0
  -22.7313   18.5208   29.6809 H   0  0  0  0  0  0  0  0  0  0  0  0
  1  2  1  0
  1  6  1  0
  2  3  1  0
  2  4  1  0
  2  5  1  0
  6  7  1  0
  6 26  2  0
  7  8  2  0
  7 19  1  0
  8  9  1  0
  8 22  1  0
  9 10  1  0
  9 11  1  0
 11 12  2  0
 11 13  1  0
 13 14  1  0
 13 15  1  0
 13 16  1  0
 16 17  1  0
 16 18  1  0
 16 19  1  0
 19 20  1  0
 19 21  1  0
 22 23  1  0
 22 24  2  0
 24 25  1  0
 24 26  1  0
 26 27  1  0
M  END
$$$$
