
     RDKit          3D

 24 25  0  0  0  0  0  0  0  0999 V2000
  -19.1481   13.6922   26.9732 S   0  0  0  0  0  0  0  0  0  0  0  0
  -18.1912   13.0216   27.8309 O   0  0  0  0  0  0  0  0  0  0  0  0
  -19.9335   14.8113   27.4674 O   0  0  0  0  0  0  0  0  0  0  0  0
  -20.2840   12.4821   26.3149 C   0  0  0  0  0  0  0  0  0  0  0  0
  -20.4431   12.7118   25.2577 H   0  0  0  0  0  0  0  0  0  0  0  0
  -19.8177   11.4981   26.4138 H   0  0  0  0  0  0  0  0  0  0  0  0
  -21.5724   12.5451   27.0575 C   0  0  0  0  0  0  0  0  0  0  0  0
  -21.6603   12.3681   28.4117 N   0  0  0  0  0  0  0  0  0  0  0  0
  -20.8852   12.1427   29.0513 H   0  0  0  0  0  0  0  0  0  0  0  0
  -22.9553   12.5373   28.7754 C   0  0  0  0  0  0  0  0  0  0  0  0
  -23.6170   12.8196   27.5984 C   0  0  0  0  0  0  0  0  0  0  0  0
  -22.7266   12.8176   26.5455 N   0  0  0  0  0  0  0  0  0  0  0  0
  -24.9983   13.0522   27.6331 C   0  0  0  0  0  0  0  0  0  0  0  0
  -25.5128   13.2677   26.7336 H   0  0  0  0  0  0  0  0  0  0  0  0
  -25.6656   12.9918   28.8500 C   0  0  0  0  0  0  0  0  0  0  0  0
  -26.7101   13.1651   28.8879 H   0  0  0  0  0  0  0  0  0  0  0  0
  -24.9641   12.7012   30.0433 C   0  0  0  0  0  0  0  0  0  0  0  0
  -25.4931   12.6607   30.9622 H   0  0  0  0  0  0  0  0  0  0  0  0
  -23.5981   12.4699   30.0190 C   0  0  0  0  0  0  0  0  0  0  0  0
  -23.0604   12.2501   30.9050 H   0  0  0  0  0  0  0  0  0  0  0  0
  -18.2786   14.2427   25.5272 C   0  0  0  0  0  0  0  0  0  0  0  0
  -17.7628   13.3907   25.0811 H   0  0  0  0  0  0  0  0  0  0  0  0
  -17.5549   15.0012   25.8325 H   0  0  0  0  0  0  0  0  0  0  0  0
  -18.9963   14.6725   24.8250 H   0  0  0  0  0  0  0  0  0  0  0  0
  1  2  2  0
  1  3  2  0
  1  4  1  0
  1 21  1  0
  4  5  1  0
  4  6  1  0
  4  7  1  0
  7  8  1  0
  7 12  2  0
  8  9  1  0
  8 10  1  0
 10 11  1  0
 10 19  2  0
 11 12  1  0
 11 13  2  0
 13 14  1  0
 13 15  1  0
 15 16  1  0
 15 17  2  0
 17 18  1  0
 17 19  1  0
 19 20  1  0
 21 22  1  0
 21 23  1  0
 21 24  1  0
M  END
$$$$
