
     RDKit          3D

 16 16  0  0  0  0  0  0  0  0999 V2000
  -18.6689   14.1991   26.9130 Br  0  0  0  0  0  0  0  0  0  0  0  0
  -20.0680   12.9806   27.1229 C   0  0  0  0  0  0  0  0  0  0  0  0
  -21.2340   13.1598   27.7779 C   0  0  0  0  0  0  0  0  0  0  0  0
  -21.6289   13.9905   28.3016 H   0  0  0  0  0  0  0  0  0  0  0  0
  -21.9105   11.9955   27.6460 N   0  0  0  0  0  0  0  0  0  0  0  0
  -23.2168   11.6556   28.1748 C   0  0  0  0  0  0  0  0  0  0  0  0
  -23.3313   10.5710   28.0704 H   0  0  0  0  0  0  0  0  0  0  0  0
  -23.2107   11.9055   29.2416 H   0  0  0  0  0  0  0  0  0  0  0  0
  -24.3316   12.3850   27.4418 C   0  0  0  0  0  0  0  0  0  0  0  0
  -24.0816   13.4456   27.3488 H   0  0  0  0  0  0  0  0  0  0  0  0
  -25.2922   12.2915   27.9592 H   0  0  0  0  0  0  0  0  0  0  0  0
  -24.4675   11.8598   26.1247 O   0  0  0  0  0  0  0  0  0  0  0  0
  -24.8284   10.9598   26.2105 H   0  0  0  0  0  0  0  0  0  0  0  0
  -21.2106   11.0809   26.9203 N   0  0  0  0  0  0  0  0  0  0  0  0
  -20.0946   11.6882   26.6105 C   0  0  0  0  0  0  0  0  0  0  0  0
  -19.3231   11.2378   26.0410 H   0  0  0  0  0  0  0  0  0  0  0  0
  1  2  1  0
  2  3  2  0
  2 15  1  0
  3  4  1  0
  3  5  1  0
  5  6  1  0
  5 14  1  0
  6  7  1  0
  6  8  1  0
  6  9  1  0
  9 10  1  0
  9 11  1  0
  9 12  1  0
 12 13  1  0
 14 15  2  0
 15 16  1  0
M  END
$$$$
