
     RDKit          3D

 23 24  0  0  0  0  0  0  0  0999 V2000
  -22.1622   10.5515   27.1262 O   0  0  0  0  0  0  0  0  0  0  0  0
  -21.7537   11.5360   27.7341 C   0  0  0  0  0  0  0  0  0  0  0  0
  -20.5753   12.1083   27.2836 N   0  0  0  0  0  0  0  0  0  0  0  0
  -19.8247   13.2071   27.8815 C   0  0  0  0  0  0  0  0  0  0  0  0
  -20.4478   14.0908   28.0232 H   0  0  0  0  0  0  0  0  0  0  0  0
  -19.4474   12.8695   28.8525 H   0  0  0  0  0  0  0  0  0  0  0  0
  -18.6926   13.4897   26.9008 C   0  0  0  0  0  0  0  0  0  0  0  0
  -19.0179   14.2300   26.1594 H   0  0  0  0  0  0  0  0  0  0  0  0
  -17.7952   13.8717   27.3931 H   0  0  0  0  0  0  0  0  0  0  0  0
  -18.4761   12.1466   26.2211 C   0  0  0  0  0  0  0  0  0  0  0  0
  -17.8734   11.4973   26.8675 H   0  0  0  0  0  0  0  0  0  0  0  0
  -17.9745   12.2317   25.2533 H   0  0  0  0  0  0  0  0  0  0  0  0
  -19.8890   11.5993   26.1041 C   0  0  0  0  0  0  0  0  0  0  0  0
  -19.9132   10.5067   26.0632 H   0  0  0  0  0  0  0  0  0  0  0  0
  -20.4025   11.9991   25.2219 H   0  0  0  0  0  0  0  0  0  0  0  0
  -22.4240   12.0532   28.9118 C   0  0  0  0  0  0  0  0  0  0  0  0
  -22.8246   13.3492   29.0490 C   0  0  0  0  0  0  0  0  0  0  0  0
  -22.7597   14.1740   28.3873 H   0  0  0  0  0  0  0  0  0  0  0  0
  -23.3648   13.4426   30.2746 N   0  0  0  0  0  0  0  0  0  0  0  0
  -23.7648   14.3088   30.6840 H   0  0  0  0  0  0  0  0  0  0  0  0
  -23.3251   12.2575   30.9445 N   0  0  0  0  0  0  0  0  0  0  0  0
  -22.7486   11.4305   30.1197 C   0  0  0  0  0  0  0  0  0  0  0  0
  -22.5490   10.4180   30.3626 H   0  0  0  0  0  0  0  0  0  0  0  0
  1  2  2  0
  2  3  1  0
  2 16  1  0
  3  4  1  0
  3 13  1  0
  4  5  1  0
  4  6  1  0
  4  7  1  0
  7  8  1  0
  7  9  1  0
  7 10  1  0
 10 11  1  0
 10 12  1  0
 10 13  1  0
 13 14  1  0
 13 15  1  0
 16 17  2  0
 16 22  1  0
 17 18  1  0
 17 19  1  0
 19 20  1  0
 19 21  1  0
 21 22  2  0
 22 23  1  0
M  END
$$$$
