
     RDKit          3D

 18 18  0  0  0  0  0  0  0  0999 V2000
  -15.8527   15.7215   27.8614 O   0  0  0  0  0  0  0  0  0  0  0  0
  -16.5062   15.8786   26.8315 C   0  0  0  0  0  0  0  0  0  0  0  0
  -16.0255   16.7717   25.9134 N   0  0  0  0  0  0  0  0  0  0  0  0
  -16.5482   16.8487   25.0294 H   0  0  0  0  0  0  0  0  0  0  0  0
  -14.8358   17.5697   26.1223 C   0  0  0  0  0  0  0  0  0  0  0  0
  -14.0294   16.9056   26.4527 H   0  0  0  0  0  0  0  0  0  0  0  0
  -14.5451   18.0005   25.1589 H   0  0  0  0  0  0  0  0  0  0  0  0
  -15.0695   18.6655   27.1437 C   0  0  0  0  0  0  0  0  0  0  0  0
  -14.1596   19.2563   27.2853 H   0  0  0  0  0  0  0  0  0  0  0  0
  -15.8696   19.3389   26.8189 H   0  0  0  0  0  0  0  0  0  0  0  0
  -15.3605   18.2425   28.1108 H   0  0  0  0  0  0  0  0  0  0  0  0
  -17.7242   15.1880   26.4863 C   0  0  0  0  0  0  0  0  0  0  0  0
  -18.5462   15.5784   25.4690 N   0  0  0  0  0  0  0  0  0  0  0  0
  -19.5521   14.7412   25.4296 N   0  0  0  0  0  0  0  0  0  0  0  0
  -19.3709   13.8360   26.4030 N   0  0  0  0  0  0  0  0  0  0  0  0
  -20.0330   13.0583   26.5828 H   0  0  0  0  0  0  0  0  0  0  0  0
  -18.2534   14.0851   27.0713 C   0  0  0  0  0  0  0  0  0  0  0  0
  -17.9156   13.4927   27.8819 H   0  0  0  0  0  0  0  0  0  0  0  0
  1  2  2  0
  2  3  1  0
  2 12  1  0
  3  4  1  0
  3  5  1  0
  5  6  1  0
  5  7  1  0
  5  8  1  0
  8  9  1  0
  8 10  1  0
  8 11  1  0
 12 13  1  0
 12 17  2  0
 13 14  2  0
 14 15  1  0
 15 16  1  0
 15 17  1  0
 17 18  1  0
M  END
$$$$
