
     RDKit          3D

 26 28  0  0  0  0  0  0  0  0999 V2000
  -19.8939   12.2438   28.6789 O   0  0  0  0  0  0  0  0  0  0  0  0
  -20.8851   12.2803   27.9567 C   0  0  0  0  0  0  0  0  0  0  0  0
  -20.7542   11.8316   26.6666 N   0  0  0  0  0  0  0  0  0  0  0  0
  -21.5995   11.7517   26.0941 H   0  0  0  0  0  0  0  0  0  0  0  0
  -19.5074   11.4404   26.0888 C   0  0  0  0  0  0  0  0  0  0  0  0
  -19.0134   10.6475   26.6466 H   0  0  0  0  0  0  0  0  0  0  0  0
  -18.6108   12.4523   25.4285 C   0  0  0  0  0  0  0  0  0  0  0  0
  -18.9445   13.4806   25.3591 H   0  0  0  0  0  0  0  0  0  0  0  0
  -17.5411   12.3402   25.5609 H   0  0  0  0  0  0  0  0  0  0  0  0
  -19.3256   11.4296   24.5958 C   0  0  0  0  0  0  0  0  0  0  0  0
  -18.7466   10.6196   24.1693 H   0  0  0  0  0  0  0  0  0  0  0  0
  -20.1505   11.7603   23.9764 H   0  0  0  0  0  0  0  0  0  0  0  0
  -22.2102   12.7318   28.4347 C   0  0  0  0  0  0  0  0  0  0  0  0
  -23.0672   13.3661   27.5151 C   0  0  0  0  0  0  0  0  0  0  0  0
  -22.7673   13.5185   26.5109 H   0  0  0  0  0  0  0  0  0  0  0  0
  -24.3129   13.7904   27.9464 C   0  0  0  0  0  0  0  0  0  0  0  0
  -25.2494   14.4189   27.1892 O   0  0  0  0  0  0  0  0  0  0  0  0
  -26.3024   14.6060   28.1577 C   0  0  0  0  0  0  0  0  0  0  0  0
  -26.5078   15.6780   28.2496 H   0  0  0  0  0  0  0  0  0  0  0  0
  -27.2066   14.1042   27.7943 H   0  0  0  0  0  0  0  0  0  0  0  0
  -25.9783   14.0844   29.4637 O   0  0  0  0  0  0  0  0  0  0  0  0
  -24.7280   13.5994   29.2410 C   0  0  0  0  0  0  0  0  0  0  0  0
  -23.9171   12.9689   30.1740 C   0  0  0  0  0  0  0  0  0  0  0  0
  -24.2579   12.8231   31.1673 H   0  0  0  0  0  0  0  0  0  0  0  0
  -22.6567   12.5317   29.7647 C   0  0  0  0  0  0  0  0  0  0  0  0
  -22.0349   12.0318   30.4627 H   0  0  0  0  0  0  0  0  0  0  0  0
  1  2  2  0
  2  3  1  0
  2 13  1  0
  3  4  1  0
  3  5  1  0
  5  6  1  0
  5  7  1  0
  5 10  1  0
  7  8  1  0
  7  9  1  0
  7 10  1  0
 10 11  1  0
 10 12  1  0
 13 14  1  0
 13 25  2  0
 14 15  1  0
 14 16  2  0
 16 17  1  0
 16 22  1  0
 17 18  1  0
 18 19  1  0
 18 20  1  0
 18 21  1  0
 21 22  1  0
 22 23  2  0
 23 24  1  0
 23 25  1  0
 25 26  1  0
M  END
$$$$
