
     RDKit          3D

 27 28  0  0  0  0  0  0  0  0999 V2000
  -14.6672   16.7970   26.1983 F   0  0  0  0  0  0  0  0  0  0  0  0
  -15.5245   17.6923   26.7164 C   0  0  0  0  0  0  0  0  0  0  0  0
  -16.8541   17.3191   26.9539 C   0  0  0  0  0  0  0  0  0  0  0  0
  -17.2414   16.0235   26.6405 N   0  0  0  0  0  0  0  0  0  0  0  0
  -16.5070   15.3238   26.5866 H   0  0  0  0  0  0  0  0  0  0  0  0
  -18.6007   15.5891   26.3881 C   0  0  0  0  0  0  0  0  0  0  0  0
  -19.1033   15.3865   27.3424 H   0  0  0  0  0  0  0  0  0  0  0  0
  -19.1538   16.4037   25.9030 H   0  0  0  0  0  0  0  0  0  0  0  0
  -18.7149   14.3600   25.5381 C   0  0  0  0  0  0  0  0  0  0  0  0
  -18.8115   13.0750   25.9611 C   0  0  0  0  0  0  0  0  0  0  0  0
  -18.8334   12.4651   27.3110 C   0  0  0  0  0  0  0  0  0  0  0  0
  -19.3634   13.1073   28.0202 H   0  0  0  0  0  0  0  0  0  0  0  0
  -17.8120   12.3196   27.6765 H   0  0  0  0  0  0  0  0  0  0  0  0
  -19.3368   11.4925   27.3010 H   0  0  0  0  0  0  0  0  0  0  0  0
  -18.8819   12.3356   24.8285 N   0  0  0  0  0  0  0  0  0  0  0  0
  -18.9603   11.3016   24.7982 H   0  0  0  0  0  0  0  0  0  0  0  0
  -18.8356   13.0983   23.7078 N   0  0  0  0  0  0  0  0  0  0  0  0
  -18.7306   14.3209   24.1476 C   0  0  0  0  0  0  0  0  0  0  0  0
  -18.6637   15.1623   23.5058 H   0  0  0  0  0  0  0  0  0  0  0  0
  -17.7352   18.2630   27.4901 C   0  0  0  0  0  0  0  0  0  0  0  0
  -18.7485   18.0080   27.6563 H   0  0  0  0  0  0  0  0  0  0  0  0
  -17.2747   19.5461   27.7875 C   0  0  0  0  0  0  0  0  0  0  0  0
  -17.9426   20.2627   28.1929 H   0  0  0  0  0  0  0  0  0  0  0  0
  -15.9441   19.9008   27.5503 C   0  0  0  0  0  0  0  0  0  0  0  0
  -15.6074   20.8791   27.7781 H   0  0  0  0  0  0  0  0  0  0  0  0
  -15.0614   18.9666   27.0084 C   0  0  0  0  0  0  0  0  0  0  0  0
  -14.0500   19.2224   26.8195 H   0  0  0  0  0  0  0  0  0  0  0  0
  1  2  1  0
  2  3  1  0
  2 26  2  0
  3  4  1  0
  3 20  2  0
  4  5  1  0
  4  6  1  0
  6  7  1  0
  6  8  1  0
  6  9  1  0
  9 10  2  0
  9 18  1  0
 10 11  1  0
 10 15  1  0
 11 12  1  0
 11 13  1  0
 11 14  1  0
 15 16  1  0
 15 17  1  0
 17 18  2  0
 18 19  1  0
 20 21  1  0
 20 22  1  0
 22 23  1  0
 22 24  2  0
 24 25  1  0
 24 26  1  0
 26 27  1  0
M  END
$$$$
