
     RDKit          3D

 16 16  0  0  0  0  0  0  0  0999 V2000
  -21.9382   12.7079   28.8378 Br  0  0  0  0  0  0  0  0  0  0  0  0
  -20.5291   12.4720   27.6358 C   0  0  0  0  0  0  0  0  0  0  0  0
  -20.5676   12.5346   26.2885 C   0  0  0  0  0  0  0  0  0  0  0  0
  -21.3592   12.7286   25.6133 H   0  0  0  0  0  0  0  0  0  0  0  0
  -19.3014   12.2975   25.8747 N   0  0  0  0  0  0  0  0  0  0  0  0
  -18.8007   12.2412   24.5155 C   0  0  0  0  0  0  0  0  0  0  0  0
  -18.1368   11.3717   24.4554 H   0  0  0  0  0  0  0  0  0  0  0  0
  -19.6610   12.0701   23.8590 H   0  0  0  0  0  0  0  0  0  0  0  0
  -18.0564   13.5108   24.1332 C   0  0  0  0  0  0  0  0  0  0  0  0
  -17.3785   13.8002   24.9411 H   0  0  0  0  0  0  0  0  0  0  0  0
  -18.7404   14.3416   23.9301 H   0  0  0  0  0  0  0  0  0  0  0  0
  -17.2643   13.2752   22.9731 O   0  0  0  0  0  0  0  0  0  0  0  0
  -16.5587   13.9458   22.9663 H   0  0  0  0  0  0  0  0  0  0  0  0
  -18.4555   12.0911   26.9211 N   0  0  0  0  0  0  0  0  0  0  0  0
  -19.2111   12.1970   27.9833 C   0  0  0  0  0  0  0  0  0  0  0  0
  -18.8475   12.0856   28.9721 H   0  0  0  0  0  0  0  0  0  0  0  0
  1  2  1  0
  2  3  2  0
  2 15  1  0
  3  4  1  0
  3  5  1  0
  5  6  1  0
  5 14  1  0
  6  7  1  0
  6  8  1  0
  6  9  1  0
  9 10  1  0
  9 11  1  0
  9 12  1  0
 12 13  1  0
 14 15  2  0
 15 16  1  0
M  END
$$$$
