
     RDKit          3D

 19 19  0  0  0  0  0  0  0  0999 V2000
  -20.5875   13.5122   28.2362 O   0  0  0  0  0  0  0  0  0  0  0  0
  -21.2017   12.6962   27.5640 C   0  0  0  0  0  0  0  0  0  0  0  0
  -20.5905   11.8532   26.7439 N   0  0  0  0  0  0  0  0  0  0  0  0
  -21.1265   11.2019   26.1966 H   0  0  0  0  0  0  0  0  0  0  0  0
  -19.1509   11.8344   26.5935 C   0  0  0  0  0  0  0  0  0  0  0  0
  -18.6965   11.9478   27.5838 H   0  0  0  0  0  0  0  0  0  0  0  0
  -18.8504   10.8596   26.1945 H   0  0  0  0  0  0  0  0  0  0  0  0
  -18.7459   12.9392   25.6853 C   0  0  0  0  0  0  0  0  0  0  0  0
  -18.1191   14.0901   26.0256 C   0  0  0  0  0  0  0  0  0  0  0  0
  -17.7863   14.4623   26.9603 H   0  0  0  0  0  0  0  0  0  0  0  0
  -17.9585   14.7747   24.8729 N   0  0  0  0  0  0  0  0  0  0  0  0
  -17.5055   15.7036   24.7860 H   0  0  0  0  0  0  0  0  0  0  0  0
  -18.4692   14.1027   23.8084 N   0  0  0  0  0  0  0  0  0  0  0  0
  -18.9410   12.9941   24.3089 C   0  0  0  0  0  0  0  0  0  0  0  0
  -19.4130   12.2466   23.7216 H   0  0  0  0  0  0  0  0  0  0  0  0
  -22.7021   12.6044   27.5910 C   0  0  0  0  0  0  0  0  0  0  0  0
  -23.0422   11.6021   27.3156 H   0  0  0  0  0  0  0  0  0  0  0  0
  -23.1176   13.3300   26.8876 H   0  0  0  0  0  0  0  0  0  0  0  0
  -23.0609   12.8265   28.5998 H   0  0  0  0  0  0  0  0  0  0  0  0
  1  2  2  0
  2  3  1  0
  2 16  1  0
  3  4  1  0
  3  5  1  0
  5  6  1  0
  5  7  1  0
  5  8  1  0
  8  9  2  0
  8 14  1  0
  9 10  1  0
  9 11  1  0
 11 12  1  0
 11 13  1  0
 13 14  2  0
 14 15  1  0
 16 17  1  0
 16 18  1  0
 16 19  1  0
M  END
$$$$
