
     RDKit          3D

 19 19  0  0  0  0  0  0  0  0999 V2000
  -16.4610   16.8229   26.0410 Br  0  0  0  0  0  0  0  0  0  0  0  0
  -17.4739   15.2545   26.1502 C   0  0  0  0  0  0  0  0  0  0  0  0
  -17.4788   14.5012   27.2842 C   0  0  0  0  0  0  0  0  0  0  0  0
  -16.9126   14.7767   28.1329 H   0  0  0  0  0  0  0  0  0  0  0  0
  -18.2516   13.3033   27.3633 C   0  0  0  0  0  0  0  0  0  0  0  0
  -18.2839   12.5642   28.3556 O   0  0  0  0  0  0  0  0  0  0  0  0
  -19.0098   12.9417   26.2452 N   0  0  0  0  0  0  0  0  0  0  0  0
  -19.8235   11.7253   26.2827 C   0  0  0  0  0  0  0  0  0  0  0  0
  -20.0957   11.4389   25.2594 H   0  0  0  0  0  0  0  0  0  0  0  0
  -19.2294   10.8888   26.6734 H   0  0  0  0  0  0  0  0  0  0  0  0
  -21.0943   11.9057   27.1111 C   0  0  0  0  0  0  0  0  0  0  0  0
  -21.7925   12.6021   26.6355 H   0  0  0  0  0  0  0  0  0  0  0  0
  -20.8518   12.3051   28.1015 H   0  0  0  0  0  0  0  0  0  0  0  0
  -21.7503   10.6560   27.2904 O   0  0  0  0  0  0  0  0  0  0  0  0
  -21.9043   10.2794   26.4054 H   0  0  0  0  0  0  0  0  0  0  0  0
  -18.9995   13.7091   25.0857 C   0  0  0  0  0  0  0  0  0  0  0  0
  -19.5995   13.3499   24.2855 H   0  0  0  0  0  0  0  0  0  0  0  0
  -18.2499   14.8470   25.0289 C   0  0  0  0  0  0  0  0  0  0  0  0
  -18.2363   15.4390   24.1498 H   0  0  0  0  0  0  0  0  0  0  0  0
  1  2  1  0
  2  3  2  0
  2 18  1  0
  3  4  1  0
  3  5  1  0
  5  6  2  0
  5  7  1  0
  7  8  1  0
  7 16  1  0
  8  9  1  0
  8 10  1  0
  8 11  1  0
 11 12  1  0
 11 13  1  0
 11 14  1  0
 14 15  1  0
 16 17  1  0
 16 18  2  0
 18 19  1  0
M  END
$$$$
