
     RDKit          3D

 20 20  0  0  0  0  0  0  0  0999 V2000
  -17.3514   14.4418   27.9368 O   0  0  0  0  0  0  0  0  0  0  0  0
  -17.8225   14.0393   26.8551 C   0  0  0  0  0  0  0  0  0  0  0  0
  -18.4741   12.7914   26.8183 N   0  0  0  0  0  0  0  0  0  0  0  0
  -18.5820   12.0054   28.0436 C   0  0  0  0  0  0  0  0  0  0  0  0
  -19.6379   11.8263   28.2672 H   0  0  0  0  0  0  0  0  0  0  0  0
  -18.1382   12.5137   28.9042 H   0  0  0  0  0  0  0  0  0  0  0  0
  -18.0589   11.0533   27.9079 H   0  0  0  0  0  0  0  0  0  0  0  0
  -19.0120   12.2912   25.6105 C   0  0  0  0  0  0  0  0  0  0  0  0
  -19.6790   10.9440   25.5944 C   0  0  0  0  0  0  0  0  0  0  0  0
  -18.9756   10.1595   25.8921 H   0  0  0  0  0  0  0  0  0  0  0  0
  -20.0475   10.6846   24.5960 H   0  0  0  0  0  0  0  0  0  0  0  0
  -20.5396   10.9267   26.2696 H   0  0  0  0  0  0  0  0  0  0  0  0
  -18.9312   13.0457   24.4729 C   0  0  0  0  0  0  0  0  0  0  0  0
  -19.3378   12.6792   23.5658 H   0  0  0  0  0  0  0  0  0  0  0  0
  -18.3022   14.3199   24.4655 C   0  0  0  0  0  0  0  0  0  0  0  0
  -18.2490   14.8786   23.5670 H   0  0  0  0  0  0  0  0  0  0  0  0
  -17.7565   14.8048   25.6169 C   0  0  0  0  0  0  0  0  0  0  0  0
  -17.1240   16.0215   25.6845 N   0  0  0  0  0  0  0  0  0  0  0  0
  -17.0354   16.6151   24.8725 H   0  0  0  0  0  0  0  0  0  0  0  0
  -16.7478   16.3041   26.5865 H   0  0  0  0  0  0  0  0  0  0  0  0
  1  2  2  0
  2  3  1  0
  2 17  1  0
  3  4  1  0
  3  8  1  0
  4  5  1  0
  4  6  1  0
  4  7  1  0
  8  9  1  0
  8 13  2  0
  9 10  1  0
  9 11  1  0
  9 12  1  0
 13 14  1  0
 13 15  1  0
 15 16  1  0
 15 17  2  0
 17 18  1  0
 18 19  1  0
 18 20  1  0
M  END
$$$$
