
     RDKit          3D

 26 26  0  0  0  0  0  0  0  0999 V2000
  -19.7060   15.9123   26.6694 F   0  0  0  0  0  0  0  0  0  0  0  0
  -18.3857   16.0884   26.5044 C   0  0  0  0  0  0  0  0  0  0  0  0
  -17.5785   15.1340   25.8586 C   0  0  0  0  0  0  0  0  0  0  0  0
  -18.1105   13.9511   25.3209 N   0  0  0  0  0  0  0  0  0  0  0  0
  -18.4688   12.8670   26.2657 C   0  0  0  0  0  0  0  0  0  0  0  0
  -19.8405   12.2592   25.9185 C   0  0  0  0  0  0  0  0  0  0  0  0
  -20.4323   12.9647   25.3254 H   0  0  0  0  0  0  0  0  0  0  0  0
  -20.4156   12.0224   26.8190 H   0  0  0  0  0  0  0  0  0  0  0  0
  -19.7084   11.0570   25.1626 O   0  0  0  0  0  0  0  0  0  0  0  0
  -20.6167   10.7162   25.0751 H   0  0  0  0  0  0  0  0  0  0  0  0
  -18.4185   13.3258   27.7282 C   0  0  0  0  0  0  0  0  0  0  0  0
  -18.5037   12.4611   28.3962 H   0  0  0  0  0  0  0  0  0  0  0  0
  -19.2354   14.0065   27.9850 H   0  0  0  0  0  0  0  0  0  0  0  0
  -17.4710   13.8266   27.9501 H   0  0  0  0  0  0  0  0  0  0  0  0
  -18.3073   13.8068   23.8858 C   0  0  0  0  0  0  0  0  0  0  0  0
  -19.1834   14.3747   23.5558 H   0  0  0  0  0  0  0  0  0  0  0  0
  -18.4592   12.7651   23.5881 H   0  0  0  0  0  0  0  0  0  0  0  0
  -17.4229   14.1377   23.3283 H   0  0  0  0  0  0  0  0  0  0  0  0
  -16.2571   15.3203   25.7164 N   0  0  0  0  0  0  0  0  0  0  0  0
  -15.7084   16.4340   26.2176 C   0  0  0  0  0  0  0  0  0  0  0  0
  -14.6630   16.5625   26.1009 H   0  0  0  0  0  0  0  0  0  0  0  0
  -16.4588   17.4102   26.8759 C   0  0  0  0  0  0  0  0  0  0  0  0
  -15.9827   18.2756   27.2570 H   0  0  0  0  0  0  0  0  0  0  0  0
  -17.8329   17.2421   27.0268 C   0  0  0  0  0  0  0  0  0  0  0  0
  -18.4349   17.9622   27.5175 H   0  0  0  0  0  0  0  0  0  0  0  0
  -17.7208   12.0650   26.2043 H   0  0  0  0  0  0  0  0  0  0  0  0
  1  2  1  0
  2  3  1  0
  2 24  2  0
  3  4  1  0
  3 19  2  0
  4  5  1  0
  4 15  1  0
  5  6  1  0
  5 11  1  0
  5 26  1  0
  6  7  1  0
  6  8  1  0
  6  9  1  0
  9 10  1  0
 11 12  1  0
 11 13  1  0
 11 14  1  0
 15 16  1  0
 15 17  1  0
 15 18  1  0
 19 20  1  0
 20 21  1  0
 20 22  2  0
 22 23  1  0
 22 24  1  0
 24 25  1  0
M  END
$$$$
