
     RDKit          3D

 14 14  0  0  0  0  0  0  0  0999 V2000
  -17.3895   14.4412   23.3664 O   0  0  0  0  0  0  0  0  0  0  0  0
  -17.9318   14.3509   24.5026 C   0  0  0  0  0  0  0  0  0  0  0  0
  -17.9035   15.3417   25.2911 O   0  0  0  0  0  0  0  0  0  0  0  0
  -18.5882   13.1122   24.9012 C   0  0  0  0  0  0  0  0  0  0  0  0
  -19.2549   12.8584   26.0883 C   0  0  0  0  0  0  0  0  0  0  0  0
  -19.4236   13.8463   27.2055 C   0  0  0  0  0  0  0  0  0  0  0  0
  -19.9837   13.4098   28.0388 H   0  0  0  0  0  0  0  0  0  0  0  0
  -19.9772   14.7264   26.8633 H   0  0  0  0  0  0  0  0  0  0  0  0
  -18.4488   14.1588   27.5949 H   0  0  0  0  0  0  0  0  0  0  0  0
  -19.7782   11.5572   26.1591 C   0  0  0  0  0  0  0  0  0  0  0  0
  -20.3196   11.1871   26.9905 H   0  0  0  0  0  0  0  0  0  0  0  0
  -19.5190   10.8140   25.0445 C   0  0  0  0  0  0  0  0  0  0  0  0
  -19.8047    9.8115   24.8569 H   0  0  0  0  0  0  0  0  0  0  0  0
  -18.6208   11.7043   23.8771 S   0  0  0  0  0  0  0  0  0  0  0  0
  1  2  1  0
  2  3  2  0
  2  4  1  0
  4  5  2  0
  4 14  1  0
  5  6  1  0
  5 10  1  0
  6  7  1  0
  6  8  1  0
  6  9  1  0
 10 11  1  0
 10 12  2  0
 12 13  1  0
 12 14  1  0
M  END
$$$$
