
     RDKit          3D

 29 30  0  0  0  0  0  0  0  0999 V2000
  -22.1581   11.3245   27.2813 O   0  0  0  0  0  0  0  0  0  0  0  0
  -21.6231   12.3551   27.6445 C   0  0  0  0  0  0  0  0  0  0  0  0
  -22.3635   13.4071   28.1105 N   0  0  0  0  0  0  0  0  0  0  0  0
  -21.8231   14.2368   28.3816 H   0  0  0  0  0  0  0  0  0  0  0  0
  -23.7431   13.4816   28.2526 C   0  0  0  0  0  0  0  0  0  0  0  0
  -24.4713   14.5325   28.6832 C   0  0  0  0  0  0  0  0  0  0  0  0
  -24.1943   15.5025   28.9987 H   0  0  0  0  0  0  0  0  0  0  0  0
  -25.7576   14.1043   28.6423 N   0  0  0  0  0  0  0  0  0  0  0  0
  -26.9468   14.8426   29.0082 C   0  0  0  0  0  0  0  0  0  0  0  0
  -26.8976   15.8181   28.5108 H   0  0  0  0  0  0  0  0  0  0  0  0
  -27.8115   14.3044   28.6054 H   0  0  0  0  0  0  0  0  0  0  0  0
  -27.0795   15.0088   30.5112 C   0  0  0  0  0  0  0  0  0  0  0  0
  -27.9909   15.5638   30.7533 H   0  0  0  0  0  0  0  0  0  0  0  0
  -27.1273   14.0363   31.0116 H   0  0  0  0  0  0  0  0  0  0  0  0
  -26.2261   15.5561   30.9252 H   0  0  0  0  0  0  0  0  0  0  0  0
  -25.8587   12.8177   28.1945 N   0  0  0  0  0  0  0  0  0  0  0  0
  -24.6263   12.4472   27.9613 C   0  0  0  0  0  0  0  0  0  0  0  0
  -24.3634   11.4866   27.6010 H   0  0  0  0  0  0  0  0  0  0  0  0
  -20.0874   12.6153   27.6254 C   0  0  0  0  0  0  0  0  0  0  0  0
  -19.6396   12.5482   28.6287 H   0  0  0  0  0  0  0  0  0  0  0  0
  -19.2457   11.8126   26.5954 C   0  0  0  0  0  0  0  0  0  0  0  0
  -19.7927   11.5178   25.6933 H   0  0  0  0  0  0  0  0  0  0  0  0
  -18.7210   10.9390   26.9927 H   0  0  0  0  0  0  0  0  0  0  0  0
  -18.3819   13.0744   26.4119 C   0  0  0  0  0  0  0  0  0  0  0  0
  -18.0433   13.2755   25.3928 H   0  0  0  0  0  0  0  0  0  0  0  0
  -17.5234   13.1228   27.0916 H   0  0  0  0  0  0  0  0  0  0  0  0
  -19.5959   13.8932   26.8902 C   0  0  0  0  0  0  0  0  0  0  0  0
  -20.2500   14.2277   26.0761 H   0  0  0  0  0  0  0  0  0  0  0  0
  -19.3628   14.7474   27.5309 H   0  0  0  0  0  0  0  0  0  0  0  0
  1  2  2  0
  2  3  1  0
  2 19  1  0
  3  4  1  0
  3  5  1  0
  5  6  2  0
  5 17  1  0
  6  7  1  0
  6  8  1  0
  8  9  1  0
  8 16  1  0
  9 10  1  0
  9 11  1  0
  9 12  1  0
 12 13  1  0
 12 14  1  0
 12 15  1  0
 16 17  2  0
 17 18  1  0
 19 20  1  0
 19 21  1  0
 19 27  1  0
 21 22  1  0
 21 23  1  0
 21 24  1  0
 24 25  1  0
 24 26  1  0
 24 27  1  0
 27 28  1  0
 27 29  1  0
M  END
$$$$
