
     RDKit          3D

 25 26  0  0  0  0  0  0  0  0999 V2000
  -22.0753   13.9998   28.8821 O   0  0  0  0  0  0  0  0  0  0  0  0
  -21.7650   12.8920   28.4492 C   0  0  0  0  0  0  0  0  0  0  0  0
  -22.2518   11.7685   29.0719 N   0  0  0  0  0  0  0  0  0  0  0  0
  -21.9399   10.8870   28.6409 H   0  0  0  0  0  0  0  0  0  0  0  0
  -23.0834   11.7073   30.1757 C   0  0  0  0  0  0  0  0  0  0  0  0
  -23.4477   10.5336   30.7311 C   0  0  0  0  0  0  0  0  0  0  0  0
  -23.2149    9.5319   30.4859 H   0  0  0  0  0  0  0  0  0  0  0  0
  -24.2487   10.8758   31.7704 N   0  0  0  0  0  0  0  0  0  0  0  0
  -24.9114   10.0003   32.7021 C   0  0  0  0  0  0  0  0  0  0  0  0
  -24.6926    8.9612   32.4448 H   0  0  0  0  0  0  0  0  0  0  0  0
  -25.9874   10.1814   32.6411 H   0  0  0  0  0  0  0  0  0  0  0  0
  -24.5414   10.2216   33.7063 H   0  0  0  0  0  0  0  0  0  0  0  0
  -24.3995   12.2222   31.8856 N   0  0  0  0  0  0  0  0  0  0  0  0
  -23.6860   12.7276   30.9105 C   0  0  0  0  0  0  0  0  0  0  0  0
  -23.5954   13.7669   30.7268 H   0  0  0  0  0  0  0  0  0  0  0  0
  -20.9060   12.6611   27.3053 C   0  0  0  0  0  0  0  0  0  0  0  0
  -20.7442   11.4725   26.7796 N   0  0  0  0  0  0  0  0  0  0  0  0
  -19.9029   11.6055   25.7582 O   0  0  0  0  0  0  0  0  0  0  0  0
  -19.5222   12.8802   25.6265 C   0  0  0  0  0  0  0  0  0  0  0  0
  -18.5860   13.1922   24.5353 C   0  0  0  0  0  0  0  0  0  0  0  0
  -18.3355   14.2573   24.5240 H   0  0  0  0  0  0  0  0  0  0  0  0
  -19.0270   12.9358   23.5672 H   0  0  0  0  0  0  0  0  0  0  0  0
  -17.6574   12.6257   24.6514 H   0  0  0  0  0  0  0  0  0  0  0  0
  -20.1358   13.5797   26.5897 C   0  0  0  0  0  0  0  0  0  0  0  0
  -20.0563   14.6197   26.7730 H   0  0  0  0  0  0  0  0  0  0  0  0
  1  2  2  0
  2  3  1  0
  2 16  1  0
  3  4  1  0
  3  5  1  0
  5  6  2  0
  5 14  1  0
  6  7  1  0
  6  8  1  0
  8  9  1  0
  8 13  1  0
  9 10  1  0
  9 11  1  0
  9 12  1  0
 13 14  2  0
 14 15  1  0
 16 17  2  0
 16 24  1  0
 17 18  1  0
 18 19  1  0
 19 20  1  0
 19 24  2  0
 20 21  1  0
 20 22  1  0
 20 23  1  0
 24 25  1  0
M  END
$$$$
