
     RDKit          3D

 23 24  0  0  0  0  0  0  0  0999 V2000
  -20.1091   14.6649   27.7521 O   0  0  0  0  0  0  0  0  0  0  0  0
  -20.3431   13.6461   27.1094 C   0  0  0  0  0  0  0  0  0  0  0  0
  -19.5481   13.4064   26.0005 N   0  0  0  0  0  0  0  0  0  0  0  0
  -19.6795   12.3385   25.0152 C   0  0  0  0  0  0  0  0  0  0  0  0
  -19.6877   11.3547   25.4859 H   0  0  0  0  0  0  0  0  0  0  0  0
  -20.6202   12.4906   24.4757 H   0  0  0  0  0  0  0  0  0  0  0  0
  -18.4701   12.4957   24.1010 C   0  0  0  0  0  0  0  0  0  0  0  0
  -17.6280   11.9122   24.4934 H   0  0  0  0  0  0  0  0  0  0  0  0
  -18.6689   12.1632   23.0796 H   0  0  0  0  0  0  0  0  0  0  0  0
  -18.1516   13.9798   24.1955 C   0  0  0  0  0  0  0  0  0  0  0  0
  -18.8287   14.5461   23.5448 H   0  0  0  0  0  0  0  0  0  0  0  0
  -17.1224   14.2164   23.9121 H   0  0  0  0  0  0  0  0  0  0  0  0
  -18.4460   14.2930   25.6531 C   0  0  0  0  0  0  0  0  0  0  0  0
  -18.7073   15.3431   25.8117 H   0  0  0  0  0  0  0  0  0  0  0  0
  -17.5971   14.0371   26.2980 H   0  0  0  0  0  0  0  0  0  0  0  0
  -21.4384   12.7549   27.4406 C   0  0  0  0  0  0  0  0  0  0  0  0
  -21.4414   11.4203   27.1617 C   0  0  0  0  0  0  0  0  0  0  0  0
  -20.7127   10.8003   26.7069 H   0  0  0  0  0  0  0  0  0  0  0  0
  -22.6280   10.9557   27.5847 N   0  0  0  0  0  0  0  0  0  0  0  0
  -22.9401    9.9681   27.5128 H   0  0  0  0  0  0  0  0  0  0  0  0
  -23.4017   11.9389   28.1228 N   0  0  0  0  0  0  0  0  0  0  0  0
  -22.6808   13.0192   28.0227 C   0  0  0  0  0  0  0  0  0  0  0  0
  -23.0216   13.9721   28.3386 H   0  0  0  0  0  0  0  0  0  0  0  0
  1  2  2  0
  2  3  1  0
  2 16  1  0
  3  4  1  0
  3 13  1  0
  4  5  1  0
  4  6  1  0
  4  7  1  0
  7  8  1  0
  7  9  1  0
  7 10  1  0
 10 11  1  0
 10 12  1  0
 10 13  1  0
 13 14  1  0
 13 15  1  0
 16 17  2  0
 16 22  1  0
 17 18  1  0
 17 19  1  0
 19 20  1  0
 19 21  1  0
 21 22  2  0
 22 23  1  0
M  END
$$$$
