
     RDKit          3D

 22 22  0  0  0  0  0  0  0  0999 V2000
  -18.7217   13.3395   25.6215 O   0  0  0  0  0  0  0  0  0  0  0  0
  -18.0697   12.8212   26.1243 H   0  0  0  0  0  0  0  0  0  0  0  0
  -18.1485   14.6247   25.3978 C   0  0  0  0  0  0  0  0  0  0  0  0
  -17.2327   14.5057   24.8086 H   0  0  0  0  0  0  0  0  0  0  0  0
  -18.8684   15.2109   24.8178 H   0  0  0  0  0  0  0  0  0  0  0  0
  -17.8742   15.3161   26.7318 C   0  0  0  0  0  0  0  0  0  0  0  0
  -18.8299   15.4982   27.2385 H   0  0  0  0  0  0  0  0  0  0  0  0
  -17.2807   14.6585   27.3800 H   0  0  0  0  0  0  0  0  0  0  0  0
  -17.1520   16.6173   26.5750 C   0  0  0  0  0  0  0  0  0  0  0  0
  -15.8867   16.8021   26.1358 C   0  0  0  0  0  0  0  0  0  0  0  0
  -15.1444   16.1163   25.8217 H   0  0  0  0  0  0  0  0  0  0  0  0
  -15.6761   18.1364   26.1593 N   0  0  0  0  0  0  0  0  0  0  0  0
  -14.4796   18.8555   25.7790 C   0  0  0  0  0  0  0  0  0  0  0  0
  -14.2745   19.5981   26.5574 H   0  0  0  0  0  0  0  0  0  0  0  0
  -13.6504   18.1399   25.7693 H   0  0  0  0  0  0  0  0  0  0  0  0
  -14.6239   19.5326   24.4277 C   0  0  0  0  0  0  0  0  0  0  0  0
  -15.4513   20.2517   24.4332 H   0  0  0  0  0  0  0  0  0  0  0  0
  -14.8236   18.8014   23.6372 H   0  0  0  0  0  0  0  0  0  0  0  0
  -13.7057   20.0704   24.1722 H   0  0  0  0  0  0  0  0  0  0  0  0
  -16.7656   18.8111   26.6038 N   0  0  0  0  0  0  0  0  0  0  0  0
  -17.6536   17.8865   26.8502 C   0  0  0  0  0  0  0  0  0  0  0  0
  -18.6286   18.0937   27.2181 H   0  0  0  0  0  0  0  0  0  0  0  0
  1  2  1  0
  1  3  1  0
  3  4  1  0
  3  5  1  0
  3  6  1  0
  6  7  1  0
  6  8  1  0
  6  9  1  0
  9 10  2  0
  9 21  1  0
 10 11  1  0
 10 12  1  0
 12 13  1  0
 12 20  1  0
 13 14  1  0
 13 15  1  0
 13 16  1  0
 16 17  1  0
 16 18  1  0
 16 19  1  0
 20 21  2  0
 21 22  1  0
M  END
$$$$
