
     RDKit          3D

 29 30  0  0  0  0  0  0  0  0999 V2000
  -15.4675   15.5099   25.6108 O   0  0  0  0  0  0  0  0  0  0  0  0
  -16.4745   15.8740   26.1955 C   0  0  0  0  0  0  0  0  0  0  0  0
  -16.3992   16.8678   27.0832 N   0  0  0  0  0  0  0  0  0  0  0  0
  -15.4435   17.1236   27.3547 H   0  0  0  0  0  0  0  0  0  0  0  0
  -17.0991   17.6086   26.9947 H   0  0  0  0  0  0  0  0  0  0  0  0
  -17.7156   15.3305   25.9912 N   0  0  0  0  0  0  0  0  0  0  0  0
  -17.9103   14.4054   24.8712 C   0  0  0  0  0  0  0  0  0  0  0  0
  -16.9753   14.2291   24.3292 H   0  0  0  0  0  0  0  0  0  0  0  0
  -18.6067   14.8889   24.1754 H   0  0  0  0  0  0  0  0  0  0  0  0
  -18.4891   13.0755   25.3534 C   0  0  0  0  0  0  0  0  0  0  0  0
  -17.7720   12.5736   26.0141 H   0  0  0  0  0  0  0  0  0  0  0  0
  -18.6605   12.4135   24.5001 H   0  0  0  0  0  0  0  0  0  0  0  0
  -19.7131   13.2769   26.1437 N   0  0  0  0  0  0  0  0  0  0  0  0
  -20.8749   12.5802   25.8260 C   0  0  0  0  0  0  0  0  0  0  0  0
  -20.9081   12.0488   24.7157 O   0  0  0  0  0  0  0  0  0  0  0  0
  -21.9817   12.4947   26.7526 C   0  0  0  0  0  0  0  0  0  0  0  0
  -23.2708   12.6269   26.3171 O   0  0  0  0  0  0  0  0  0  0  0  0
  -24.0856   12.5623   27.3932 C   0  0  0  0  0  0  0  0  0  0  0  0
  -25.1364   12.6325   27.2736 H   0  0  0  0  0  0  0  0  0  0  0  0
  -23.3449   12.4093   28.5151 C   0  0  0  0  0  0  0  0  0  0  0  0
  -23.7174   12.3322   29.5034 H   0  0  0  0  0  0  0  0  0  0  0  0
  -21.9886   12.3810   28.1118 C   0  0  0  0  0  0  0  0  0  0  0  0
  -21.1290   12.2897   28.7257 H   0  0  0  0  0  0  0  0  0  0  0  0
  -19.5720   14.2351   27.2488 C   0  0  0  0  0  0  0  0  0  0  0  0
  -20.5372   14.4812   27.6950 H   0  0  0  0  0  0  0  0  0  0  0  0
  -18.9489   13.7518   28.0100 H   0  0  0  0  0  0  0  0  0  0  0  0
  -18.9242   15.5569   26.7962 C   0  0  0  0  0  0  0  0  0  0  0  0
  -18.7181   16.1600   27.6832 H   0  0  0  0  0  0  0  0  0  0  0  0
  -19.6225   16.1165   26.1621 H   0  0  0  0  0  0  0  0  0  0  0  0
  1  2  2  0
  2  3  1  0
  2  6  1  0
  3  4  1  0
  3  5  1  0
  6  7  1  0
  6 27  1  0
  7  8  1  0
  7  9  1  0
  7 10  1  0
 10 11  1  0
 10 12  1  0
 10 13  1  0
 13 14  1  0
 13 24  1  0
 14 15  2  0
 14 16  1  0
 16 17  1  0
 16 22  2  0
 17 18  1  0
 18 19  1  0
 18 20  2  0
 20 21  1  0
 20 22  1  0
 22 23  1  0
 24 25  1  0
 24 26  1  0
 24 27  1  0
 27 28  1  0
 27 29  1  0
M  END
$$$$
