
     RDKit          3D

 21 21  0  0  0  0  0  0  0  0999 V2000
  -18.9312    9.8325   24.7841 Br  0  0  0  0  0  0  0  0  0  0  0  0
  -18.9422   11.6587   25.2799 C   0  0  0  0  0  0  0  0  0  0  0  0
  -19.5886   12.0615   26.4434 C   0  0  0  0  0  0  0  0  0  0  0  0
  -20.0802   11.3572   27.0590 H   0  0  0  0  0  0  0  0  0  0  0  0
  -19.5922   13.4080   26.7948 C   0  0  0  0  0  0  0  0  0  0  0  0
  -20.2612   13.7552   27.9395 O   0  0  0  0  0  0  0  0  0  0  0  0
  -21.6517   13.3616   28.0327 C   0  0  0  0  0  0  0  0  0  0  0  0
  -22.0885   13.8621   28.8953 H   0  0  0  0  0  0  0  0  0  0  0  0
  -21.6923   12.2795   28.1479 H   0  0  0  0  0  0  0  0  0  0  0  0
  -22.1675   13.6616   27.1210 H   0  0  0  0  0  0  0  0  0  0  0  0
  -18.9422   14.3699   26.0092 C   0  0  0  0  0  0  0  0  0  0  0  0
  -18.8918   15.8512   26.3851 C   0  0  0  0  0  0  0  0  0  0  0  0
  -19.3129   15.9770   27.3705 H   0  0  0  0  0  0  0  0  0  0  0  0
  -19.3889   16.4604   25.6487 H   0  0  0  0  0  0  0  0  0  0  0  0
  -17.4468   16.2914   26.4518 C   0  0  0  0  0  0  0  0  0  0  0  0
  -16.6335   15.5171   27.0053 O   0  0  0  0  0  0  0  0  0  0  0  0
  -17.1578   17.4211   25.9983 O   0  0  0  0  0  0  0  0  0  0  0  0
  -18.3061   13.9483   24.8428 C   0  0  0  0  0  0  0  0  0  0  0  0
  -17.8261   14.6660   24.2237 H   0  0  0  0  0  0  0  0  0  0  0  0
  -18.3044   12.6042   24.4781 C   0  0  0  0  0  0  0  0  0  0  0  0
  -17.8198   12.3023   23.5866 H   0  0  0  0  0  0  0  0  0  0  0  0
  1  2  1  0
  2  3  1  0
  2 20  2  0
  3  4  1  0
  3  5  2  0
  5  6  1  0
  5 11  1  0
  6  7  1  0
  7  8  1  0
  7  9  1  0
  7 10  1  0
 11 12  1  0
 11 18  2  0
 12 13  1  0
 12 14  1  0
 12 15  1  0
 15 16  1  0
 15 17  2  0
 18 19  1  0
 18 20  1  0
 20 21  1  0
M  END
$$$$
