F600
     RDKit          3D

 16 16  0  0  0  0  0  0  0  0999 V2000
  -20.3512   15.4092   25.5360 C   0  0  0  0  0  0  0  0  0  0  0  0
  -19.8776   15.0252   26.8068 O   0  0  0  0  0  0  0  0  0  0  0  0
  -20.9752   14.7540   27.6528 C   0  0  0  0  0  0  0  0  0  0  0  0
  -20.4846   14.3053   28.9915 C   0  0  0  0  0  0  0  0  0  0  0  0
  -21.1359   14.5336   30.1559 N   0  0  0  0  0  0  0  0  0  0  0  0
  -20.5080   14.0330   31.2183 N   0  0  0  0  0  0  0  0  0  0  0  0
  -19.3568   13.4054   30.8988 C   0  0  0  0  0  0  0  0  0  0  0  0
  -18.5073   12.7888   31.8618 N   0  0  0  0  0  0  0  0  0  0  0  0
  -19.0566   13.4439   29.2432 S   0  0  0  0  0  0  0  0  0  0  0  0
  -20.9555   16.3418   25.5959 H   0  0  0  0  0  0  0  0  0  0  0  0
  -19.4796   15.6162   24.8817 H   0  0  0  0  0  0  0  0  0  0  0  0
  -20.9411   14.5933   25.0619 H   0  0  0  0  0  0  0  0  0  0  0  0
  -21.5926   15.6684   27.8039 H   0  0  0  0  0  0  0  0  0  0  0  0
  -21.6077   13.9414   27.2297 H   0  0  0  0  0  0  0  0  0  0  0  0
  -18.7602   12.8057   32.8745 H   0  0  0  0  0  0  0  0  0  0  0  0
  -17.6264   12.3160   31.5617 H   0  0  0  0  0  0  0  0  0  0  0  0
  1  2  1  0
  2  3  1  0
  3  4  1  0
  4  5  2  0
  5  6  1  0
  6  7  2  0
  7  8  1  0
  7  9  1  0
  9  4  1  0
  1 10  1  0
  1 11  1  0
  1 12  1  0
  3 13  1  0
  3 14  1  0
  8 15  1  0
  8 16  1  0
M  END
>  <CHROM.1>  (1) 
178.27982376,148.91923790,-1.76033300,-0.15713955,1.89727368

>  <Name>  (1) 
F600

>  <RI>  (1) 
3.98332e+07

>  <Rbt.Current_Directory>  (1) 
/data/out

>  <Rbt.Executable>  (1) 
rbdock ($Id: //depot/dev/client3/rdock/2013.1/src/exe/rbdock.cxx#4 $)

>  <Rbt.Library>  (1) 
libRbt.so (2013.1, Build901 2013/11/27)

>  <Rbt.Parameter_File>  (1) 
/python_libraries/phenodiscovery/docking/templates/RDOCK_TETHER.conf

>  <Rbt.Receptor>  (1) 
/data/out/rdock-opt/grid/rdock-grid.prm

>  <SCORE>  (1) 
0.906418

>  <SCORE.INTER>  (1) 
0.94752

>  <SCORE.INTER.CONST>  (1) 
1

>  <SCORE.INTER.POLAR>  (1) 
0

>  <SCORE.INTER.REPUL>  (1) 
0

>  <SCORE.INTER.ROT>  (1) 
2

>  <SCORE.INTER.VDW>  (1) 
-6.45248

>  <SCORE.INTER.norm>  (1) 
0.10528

>  <SCORE.INTRA>  (1) 
-0.0411028

>  <SCORE.INTRA.DIHEDRAL>  (1) 
0.00576039

>  <SCORE.INTRA.DIHEDRAL.0>  (1) 
1.3395

>  <SCORE.INTRA.POLAR>  (1) 
0

>  <SCORE.INTRA.POLAR.0>  (1) 
0

>  <SCORE.INTRA.REPUL>  (1) 
0

>  <SCORE.INTRA.REPUL.0>  (1) 
0

>  <SCORE.INTRA.VDW>  (1) 
-0.043983

>  <SCORE.INTRA.VDW.0>  (1) 
0.575954

>  <SCORE.INTRA.norm>  (1) 
-0.00456698

>  <SCORE.RESTR>  (1) 
0

>  <SCORE.RESTR.CAVITY>  (1) 
0

>  <SCORE.RESTR.norm>  (1) 
0

>  <SCORE.SYSTEM>  (1) 
0

>  <SCORE.SYSTEM.CONST>  (1) 
0

>  <SCORE.SYSTEM.DIHEDRAL>  (1) 
0

>  <SCORE.SYSTEM.norm>  (1) 
0

>  <SCORE.heavy>  (1) 
9

>  <SCORE.norm>  (1) 
0.100713

>  <TETHERED ATOMS>  (1) 
1,3,4,7

>  <skeledock_score>  (1) 
20

$$$$
