F179
     RDKit          3D

 29 30  0  0  0  0  0  0  0  0999 V2000
  -19.3106   12.1170   24.4689 C   0  0  0  0  0  0  0  0  0  0  0  0
  -19.0149   13.5571   24.8815 C   0  0  0  0  0  0  0  0  0  0  0  0
  -17.7915   13.9595   24.3271 O   0  0  0  0  0  0  0  0  0  0  0  0
  -18.9621   13.6762   26.3781 C   0  0  0  0  0  0  0  0  0  0  0  0
  -18.1166   13.0175   27.2511 C   0  0  0  0  0  0  0  0  0  0  0  0
  -18.3786   13.4246   28.5084 N   0  0  0  0  0  0  0  0  0  0  0  0
  -19.3732   14.3005   28.4535 N   0  0  0  0  0  0  0  0  0  0  0  0
  -19.7332   14.4964   27.1699 C   0  0  0  0  0  0  0  0  0  0  0  0
  -19.8878   15.0478   29.6081 C   0  0  0  0  0  0  0  0  0  0  0  0
  -21.2699   14.5644   30.0367 C   0  0  0  0  0  0  0  0  0  0  0  0
  -21.3743   14.8706   31.5274 C   0  0  0  0  0  0  0  0  0  0  0  0
  -19.9546   15.1367   32.0258 C   0  0  0  0  0  0  0  0  0  0  0  0
  -19.0263   14.8685   30.8519 C   0  0  0  0  0  0  0  0  0  0  0  0
  -18.5015   11.4370   24.8119 H   0  0  0  0  0  0  0  0  0  0  0  0
  -19.3832   12.0516   23.3625 H   0  0  0  0  0  0  0  0  0  0  0  0
  -20.2763   11.7830   24.9057 H   0  0  0  0  0  0  0  0  0  0  0  0
  -19.8357   14.2000   24.4861 H   0  0  0  0  0  0  0  0  0  0  0  0
  -17.6550   14.9067   24.5928 H   0  0  0  0  0  0  0  0  0  0  0  0
  -17.3514   12.2994   26.9883 H   0  0  0  0  0  0  0  0  0  0  0  0
  -20.4932   15.1904   26.8340 H   0  0  0  0  0  0  0  0  0  0  0  0
  -19.9382   16.1303   29.3522 H   0  0  0  0  0  0  0  0  0  0  0  0
  -22.0708   15.0790   29.4625 H   0  0  0  0  0  0  0  0  0  0  0  0
  -21.3570   13.4656   29.8809 H   0  0  0  0  0  0  0  0  0  0  0  0
  -22.0087   15.7697   31.6892 H   0  0  0  0  0  0  0  0  0  0  0  0
  -21.8274   14.0114   32.0688 H   0  0  0  0  0  0  0  0  0  0  0  0
  -19.8597   16.1990   32.3425 H   0  0  0  0  0  0  0  0  0  0  0  0
  -19.7017   14.4810   32.8875 H   0  0  0  0  0  0  0  0  0  0  0  0
  -18.6553   13.8211   30.9189 H   0  0  0  0  0  0  0  0  0  0  0  0
  -18.1614   15.5668   30.8495 H   0  0  0  0  0  0  0  0  0  0  0  0
  1  2  1  0
  2  3  1  0
  2  4  1  0
  4  5  1  0
  5  6  2  0
  6  7  1  0
  7  8  1  0
  7  9  1  0
  9 10  1  0
 10 11  1  0
 11 12  1  0
 12 13  1  0
  4  8  2  0
 13  9  1  0
  1 14  1  0
  1 15  1  0
  1 16  1  0
  2 17  1  0
  3 18  1  0
  5 19  1  0
  8 20  1  0
  9 21  1  0
 10 22  1  0
 10 23  1  0
 11 24  1  0
 11 25  1  0
 12 26  1  0
 12 27  1  0
 13 28  1  0
 13 29  1  0
M  END
>  <CHROM.1>  (1) 
178.04927944,59.51710818,-108.71078434,1.36818619,-0.73078966,-1.96920870

>  <Name>  (1) 
F179

>  <RI>  (1) 
3.65782e+07

>  <Rbt.Current_Directory>  (1) 
/data/out

>  <Rbt.Executable>  (1) 
rbdock ($Id: //depot/dev/client3/rdock/2013.1/src/exe/rbdock.cxx#4 $)

>  <Rbt.Library>  (1) 
libRbt.so (2013.1, Build901 2013/11/27)

>  <Rbt.Parameter_File>  (1) 
/python_libraries/phenodiscovery/docking/templates/RDOCK_TETHER.conf

>  <Rbt.Receptor>  (1) 
/data/out/rdock-opt/grid/rdock-grid.prm

>  <SCORE>  (1) 
-1.61131

>  <SCORE.INTER>  (1) 
-1.08252

>  <SCORE.INTER.CONST>  (1) 
1

>  <SCORE.INTER.POLAR>  (1) 
0

>  <SCORE.INTER.REPUL>  (1) 
0

>  <SCORE.INTER.ROT>  (1) 
2

>  <SCORE.INTER.VDW>  (1) 
-8.48252

>  <SCORE.INTER.norm>  (1) 
-0.0832709

>  <SCORE.INTRA>  (1) 
-0.528789

>  <SCORE.INTRA.DIHEDRAL>  (1) 
-1.60321

>  <SCORE.INTRA.DIHEDRAL.0>  (1) 
4.76361

>  <SCORE.INTRA.POLAR>  (1) 
0

>  <SCORE.INTRA.POLAR.0>  (1) 
0

>  <SCORE.INTRA.REPUL>  (1) 
0

>  <SCORE.INTRA.REPUL.0>  (1) 
0

>  <SCORE.INTRA.VDW>  (1) 
0.272814

>  <SCORE.INTRA.VDW.0>  (1) 
-2.00736

>  <SCORE.INTRA.norm>  (1) 
-0.0406761

>  <SCORE.RESTR>  (1) 
0

>  <SCORE.RESTR.CAVITY>  (1) 
0

>  <SCORE.RESTR.norm>  (1) 
0

>  <SCORE.SYSTEM>  (1) 
0

>  <SCORE.SYSTEM.CONST>  (1) 
0

>  <SCORE.SYSTEM.DIHEDRAL>  (1) 
0

>  <SCORE.SYSTEM.norm>  (1) 
0

>  <SCORE.heavy>  (1) 
13

>  <SCORE.norm>  (1) 
-0.123947

>  <TETHERED ATOMS>  (1) 
8,1,2,3,9,13,12

>  <skeledock_score>  (1) 
35

$$$$
