F535
     RDKit          3D

 22 23  0  0  0  0  0  0  0  0999 V2000
  -19.5821   14.1027   24.4633 C   0  0  0  0  0  0  0  0  0  0  0  0
  -19.2396   14.2691   25.8756 N   0  0  0  0  0  0  0  0  0  0  0  0
  -19.7158   13.1222   26.6577 C   0  0  0  0  0  0  0  0  0  0  0  0
  -19.3673   13.2984   28.1060 C   0  0  0  0  0  0  0  0  0  0  0  0
  -18.5127   12.5030   28.7921 N   0  0  0  0  0  0  0  0  0  0  0  0
  -18.3909   13.0065   30.0169 N   0  0  0  0  0  0  0  0  0  0  0  0
  -19.1716   14.1017   30.0499 C   0  0  0  0  0  0  0  0  0  0  0  0
  -19.3352   14.9786   31.1184 C   0  0  0  0  0  0  0  0  0  0  0  0
  -20.1814   16.0839   30.9237 C   0  0  0  0  0  0  0  0  0  0  0  0
  -20.8302   16.2772   29.6864 C   0  0  0  0  0  0  0  0  0  0  0  0
  -20.6213   15.3590   28.6454 C   0  0  0  0  0  0  0  0  0  0  0  0
  -19.7946   14.3083   28.8827 N   0  0  0  0  0  0  0  0  0  0  0  0
  -19.1537   13.1584   24.0598 H   0  0  0  0  0  0  0  0  0  0  0  0
  -20.6855   14.1006   24.3315 H   0  0  0  0  0  0  0  0  0  0  0  0
  -19.1696   14.9541   23.8817 H   0  0  0  0  0  0  0  0  0  0  0  0
  -18.1950   14.2990   25.9459 H   0  0  0  0  0  0  0  0  0  0  0  0
  -19.2576   12.1799   26.2833 H   0  0  0  0  0  0  0  0  0  0  0  0
  -20.8230   13.0385   26.5844 H   0  0  0  0  0  0  0  0  0  0  0  0
  -18.8272   14.8197   32.0609 H   0  0  0  0  0  0  0  0  0  0  0  0
  -20.3357   16.7910   31.7283 H   0  0  0  0  0  0  0  0  0  0  0  0
  -21.4804   17.1296   29.5388 H   0  0  0  0  0  0  0  0  0  0  0  0
  -21.0999   15.4902   27.6833 H   0  0  0  0  0  0  0  0  0  0  0  0
  1  2  1  0
  2  3  1  0
  3  4  1  0
  4  5  2  0
  5  6  1  0
  6  7  2  0
  7  8  1  0
  8  9  2  0
  9 10  1  0
 10 11  2  0
 11 12  1  0
 12  4  1  0
 12  7  1  0
  1 13  1  0
  1 14  1  0
  1 15  1  0
  2 16  1  0
  3 17  1  0
  3 18  1  0
  8 19  1  0
  9 20  1  0
 10 21  1  0
 11 22  1  0
M  END
>  <CHROM.1>  (1) 
-179.80507945,-115.07020458,-1.66330275,1.00048346,-1.75038082

>  <Name>  (1) 
F535

>  <RI>  (1) 
4.12586e+07

>  <Rbt.Current_Directory>  (1) 
/data/out

>  <Rbt.Executable>  (1) 
rbdock ($Id: //depot/dev/client3/rdock/2013.1/src/exe/rbdock.cxx#4 $)

>  <Rbt.Library>  (1) 
libRbt.so (2013.1, Build901 2013/11/27)

>  <Rbt.Parameter_File>  (1) 
/python_libraries/phenodiscovery/docking/templates/RDOCK_TETHER.conf

>  <Rbt.Receptor>  (1) 
/data/out/rdock-opt/grid/rdock-grid.prm

>  <SCORE>  (1) 
-0.998157

>  <SCORE.INTER>  (1) 
-0.528796

>  <SCORE.INTER.CONST>  (1) 
1

>  <SCORE.INTER.POLAR>  (1) 
0

>  <SCORE.INTER.REPUL>  (1) 
0

>  <SCORE.INTER.ROT>  (1) 
2

>  <SCORE.INTER.VDW>  (1) 
-7.9288

>  <SCORE.INTER.norm>  (1) 
-0.0440664

>  <SCORE.INTRA>  (1) 
-0.46936

>  <SCORE.INTRA.DIHEDRAL>  (1) 
-0.26526

>  <SCORE.INTRA.DIHEDRAL.0>  (1) 
1.58839

>  <SCORE.INTRA.POLAR>  (1) 
0

>  <SCORE.INTRA.POLAR.0>  (1) 
0

>  <SCORE.INTRA.REPUL>  (1) 
0

>  <SCORE.INTRA.REPUL.0>  (1) 
0

>  <SCORE.INTRA.VDW>  (1) 
-0.33673

>  <SCORE.INTRA.VDW.0>  (1) 
-0.245487

>  <SCORE.INTRA.norm>  (1) 
-0.0391134

>  <SCORE.RESTR>  (1) 
0

>  <SCORE.RESTR.CAVITY>  (1) 
0

>  <SCORE.RESTR.norm>  (1) 
0

>  <SCORE.SYSTEM>  (1) 
0

>  <SCORE.SYSTEM.CONST>  (1) 
0

>  <SCORE.SYSTEM.DIHEDRAL>  (1) 
0

>  <SCORE.SYSTEM.norm>  (1) 
0

>  <SCORE.heavy>  (1) 
12

>  <SCORE.norm>  (1) 
-0.0831797

>  <TETHERED ATOMS>  (1) 
7,8,9,10,11,1,2,3,4,12,6

>  <skeledock_score>  (1) 
50

$$$$
