F229
     RDKit          3D

 27 28  0  0  0  0  0  0  0  0999 V2000
  -22.0998   20.2927   25.7839 C   0  0  0  0  0  0  0  0  0  0  0  0
  -20.8091   19.5843   26.0355 C   0  0  0  0  0  0  0  0  0  0  0  0
  -19.6008   20.1785   25.9867 N   0  0  0  0  0  0  0  0  0  0  0  0
  -18.6892   19.2493   26.2301 N   0  0  0  0  0  0  0  0  0  0  0  0
  -19.2884   18.0614   26.4315 C   0  0  0  0  0  0  0  0  0  0  0  0
  -20.6511   18.2413   26.3274 C   0  0  0  0  0  0  0  0  0  0  0  0
  -21.7105   17.1821   26.3952 C   0  0  0  0  0  0  0  0  0  0  0  0
  -21.1877   15.9657   27.0202 N   0  0  0  0  0  0  0  0  0  0  0  0
  -20.6531   15.9339   28.3582 C   0  0  0  0  0  0  0  0  0  0  0  0
  -20.7105   17.0622   29.2023 C   0  0  0  0  0  0  0  0  0  0  0  0
  -20.1773   17.0081   30.4935 C   0  0  0  0  0  0  0  0  0  0  0  0
  -19.5820   15.8341   30.9581 C   0  0  0  0  0  0  0  0  0  0  0  0
  -19.5210   14.7093   30.1334 C   0  0  0  0  0  0  0  0  0  0  0  0
  -20.0539   14.7544   28.8410 C   0  0  0  0  0  0  0  0  0  0  0  0
  -19.9797   13.6478   28.0593 F   0  0  0  0  0  0  0  0  0  0  0  0
  -22.7466   20.2212   26.6831 H   0  0  0  0  0  0  0  0  0  0  0  0
  -21.9123   21.3637   25.5590 H   0  0  0  0  0  0  0  0  0  0  0  0
  -22.6188   19.8277   24.9200 H   0  0  0  0  0  0  0  0  0  0  0  0
  -17.6609   19.4271   26.2468 H   0  0  0  0  0  0  0  0  0  0  0  0
  -18.7685   17.1327   26.6271 H   0  0  0  0  0  0  0  0  0  0  0  0
  -22.5714   17.5629   26.9858 H   0  0  0  0  0  0  0  0  0  0  0  0
  -22.0586   16.9525   25.3656 H   0  0  0  0  0  0  0  0  0  0  0  0
  -21.1831   15.0808   26.4623 H   0  0  0  0  0  0  0  0  0  0  0  0
  -21.1632   17.9868   28.8722 H   0  0  0  0  0  0  0  0  0  0  0  0
  -20.2248   17.8789   31.1347 H   0  0  0  0  0  0  0  0  0  0  0  0
  -19.1689   15.7954   31.9577 H   0  0  0  0  0  0  0  0  0  0  0  0
  -19.0595   13.8002   30.4970 H   0  0  0  0  0  0  0  0  0  0  0  0
  1  2  1  0
  2  3  2  0
  3  4  1  0
  4  5  1  0
  5  6  2  0
  6  7  1  0
  7  8  1  0
  8  9  1  0
  9 10  2  0
 10 11  1  0
 11 12  2  0
 12 13  1  0
 13 14  2  0
 14 15  1  0
  6  2  1  0
  9 14  1  0
  1 16  1  0
  1 17  1  0
  1 18  1  0
  4 19  1  0
  5 20  1  0
  7 21  1  0
  7 22  1  0
  8 23  1  0
 10 24  1  0
 11 25  1  0
 12 26  1  0
 13 27  1  0
M  END
>  <CHROM.1>  (1) 
-167.35623569,59.44228275,5.80180433,-2.72062701,-1.10531883,0.71487681

>  <Name>  (1) 
F229

>  <RI>  (1) 
1.31859e+07

>  <Rbt.Current_Directory>  (1) 
/data/out

>  <Rbt.Executable>  (1) 
rbdock ($Id: //depot/dev/client3/rdock/2013.1/src/exe/rbdock.cxx#4 $)

>  <Rbt.Library>  (1) 
libRbt.so (2013.1, Build901 2013/11/27)

>  <Rbt.Parameter_File>  (1) 
/python_libraries/phenodiscovery/docking/templates/RDOCK_TETHER.conf

>  <Rbt.Receptor>  (1) 
/data/out/rdock-opt/grid/rdock-grid.prm

>  <SCORE>  (1) 
-0.94562

>  <SCORE.INTER>  (1) 
-0.32824

>  <SCORE.INTER.CONST>  (1) 
1

>  <SCORE.INTER.POLAR>  (1) 
0

>  <SCORE.INTER.REPUL>  (1) 
0

>  <SCORE.INTER.ROT>  (1) 
3

>  <SCORE.INTER.VDW>  (1) 
-8.72824

>  <SCORE.INTER.norm>  (1) 
-0.0218826

>  <SCORE.INTRA>  (1) 
-0.617381

>  <SCORE.INTRA.DIHEDRAL>  (1) 
0.0311777

>  <SCORE.INTRA.DIHEDRAL.0>  (1) 
3.97639

>  <SCORE.INTRA.POLAR>  (1) 
0

>  <SCORE.INTRA.POLAR.0>  (1) 
0

>  <SCORE.INTRA.REPUL>  (1) 
0

>  <SCORE.INTRA.REPUL.0>  (1) 
0

>  <SCORE.INTRA.VDW>  (1) 
-0.63297

>  <SCORE.INTRA.VDW.0>  (1) 
-1.0156

>  <SCORE.INTRA.norm>  (1) 
-0.0411587

>  <SCORE.RESTR>  (1) 
0

>  <SCORE.RESTR.CAVITY>  (1) 
0

>  <SCORE.RESTR.norm>  (1) 
0

>  <SCORE.SYSTEM>  (1) 
0

>  <SCORE.SYSTEM.CONST>  (1) 
0

>  <SCORE.SYSTEM.DIHEDRAL>  (1) 
0

>  <SCORE.SYSTEM.norm>  (1) 
0

>  <SCORE.heavy>  (1) 
15

>  <SCORE.norm>  (1) 
-0.0630414

>  <TETHERED ATOMS>  (1) 
9,14,13,12,10,11,7,8

>  <skeledock_score>  (1) 
45

$$$$
