F741
     RDKit          3D

 25 27  0  0  0  0  0  0  0  0999 V2000
  -18.2976   13.2275   27.9813 O   0  0  0  0  0  0  0  0  0  0  0  0
  -19.1651   14.1111   27.7423 C   0  0  0  0  0  0  0  0  0  0  0  0
  -19.1250   14.8272   26.5003 N   0  0  0  0  0  0  0  0  0  0  0  0
  -18.1600   14.4834   25.4592 C   0  0  0  0  0  0  0  0  0  0  0  0
  -18.7638   14.4588   24.0645 C   0  0  0  0  0  0  0  0  0  0  0  0
  -18.4355   13.1555   24.7743 C   0  0  0  0  0  0  0  0  0  0  0  0
  -20.1775   14.4095   28.7725 C   0  0  0  0  0  0  0  0  0  0  0  0
  -20.3190   13.7707   30.0041 C   0  0  0  0  0  0  0  0  0  0  0  0
  -21.3677   14.2937   30.6854 N   0  0  0  0  0  0  0  0  0  0  0  0
  -21.8874   15.2348   29.9167 N   0  0  0  0  0  0  0  0  0  0  0  0
  -22.9690   16.0039   30.1885 C   0  0  0  0  0  0  0  0  0  0  0  0
  -23.3788   16.9256   29.2159 C   0  0  0  0  0  0  0  0  0  0  0  0
  -22.6569   17.0032   28.0086 C   0  0  0  0  0  0  0  0  0  0  0  0
  -21.5758   16.1974   27.7955 N   0  0  0  0  0  0  0  0  0  0  0  0
  -21.2052   15.3298   28.7698 C   0  0  0  0  0  0  0  0  0  0  0  0
  -19.8122   15.5876   26.3071 H   0  0  0  0  0  0  0  0  0  0  0  0
  -17.1110   14.8364   25.5501 H   0  0  0  0  0  0  0  0  0  0  0  0
  -18.0541   14.7218   23.2520 H   0  0  0  0  0  0  0  0  0  0  0  0
  -19.8517   14.6784   24.0054 H   0  0  0  0  0  0  0  0  0  0  0  0
  -17.5296   12.6448   24.3853 H   0  0  0  0  0  0  0  0  0  0  0  0
  -19.3285   12.6009   25.1345 H   0  0  0  0  0  0  0  0  0  0  0  0
  -19.6940   12.9721   30.3812 H   0  0  0  0  0  0  0  0  0  0  0  0
  -23.5033   15.9047   31.1248 H   0  0  0  0  0  0  0  0  0  0  0  0
  -24.2378   17.5612   29.3865 H   0  0  0  0  0  0  0  0  0  0  0  0
  -22.9618   17.7035   27.2426 H   0  0  0  0  0  0  0  0  0  0  0  0
  1  2  2  0
  2  3  1  0
  3  4  1  0
  4  5  1  0
  5  6  1  0
  2  7  1  0
  7  8  1  0
  8  9  2  0
  9 10  1  0
 10 11  1  0
 11 12  2  0
 12 13  1  0
 13 14  2  0
 14 15  1  0
  6  4  1  0
  7 15  2  0
 15 10  1  0
  3 16  1  0
  4 17  1  0
  5 18  1  0
  5 19  1  0
  6 20  1  0
  6 21  1  0
  8 22  1  0
 11 23  1  0
 12 24  1  0
 13 25  1  0
M  END
>  <CHROM.1>  (1) 
136.57605987,-2.55421255,-0.65963382,-0.79971949,2.03640042

>  <Name>  (1) 
F741

>  <RI>  (1) 
1.26737e+07

>  <Rbt.Current_Directory>  (1) 
/data/out

>  <Rbt.Executable>  (1) 
rbdock ($Id: //depot/dev/client3/rdock/2013.1/src/exe/rbdock.cxx#4 $)

>  <Rbt.Library>  (1) 
libRbt.so (2013.1, Build901 2013/11/27)

>  <Rbt.Parameter_File>  (1) 
/python_libraries/phenodiscovery/docking/templates/RDOCK_TETHER.conf

>  <Rbt.Receptor>  (1) 
/data/out/rdock-opt/grid/rdock-grid.prm

>  <SCORE>  (1) 
0.861317

>  <SCORE.INTER>  (1) 
1.99572

>  <SCORE.INTER.CONST>  (1) 
1

>  <SCORE.INTER.POLAR>  (1) 
0

>  <SCORE.INTER.REPUL>  (1) 
0

>  <SCORE.INTER.ROT>  (1) 
2

>  <SCORE.INTER.VDW>  (1) 
-5.40428

>  <SCORE.INTER.norm>  (1) 
0.133048

>  <SCORE.INTRA>  (1) 
-1.1344

>  <SCORE.INTRA.DIHEDRAL>  (1) 
-0.998195

>  <SCORE.INTRA.DIHEDRAL.0>  (1) 
2.22954

>  <SCORE.INTRA.POLAR>  (1) 
-0.184357

>  <SCORE.INTRA.POLAR.0>  (1) 
-0.0382925

>  <SCORE.INTRA.REPUL>  (1) 
0

>  <SCORE.INTRA.REPUL.0>  (1) 
0

>  <SCORE.INTRA.VDW>  (1) 
-0.00848978

>  <SCORE.INTRA.VDW.0>  (1) 
-1.76604

>  <SCORE.INTRA.norm>  (1) 
-0.0756268

>  <SCORE.RESTR>  (1) 
0

>  <SCORE.RESTR.CAVITY>  (1) 
0

>  <SCORE.RESTR.norm>  (1) 
0

>  <SCORE.SYSTEM>  (1) 
0

>  <SCORE.SYSTEM.CONST>  (1) 
0

>  <SCORE.SYSTEM.DIHEDRAL>  (1) 
0

>  <SCORE.SYSTEM.norm>  (1) 
0

>  <SCORE.heavy>  (1) 
15

>  <SCORE.norm>  (1) 
0.0574212

>  <TETHERED ATOMS>  (1) 
2,3,4,6,7,15,14,8

>  <skeledock_score>  (1) 
27

$$$$
