F600
     RDKit          3D

 16 16  0  0  0  0  0  0  0  0999 V2000
  -17.6616   12.4513   30.7092 C   0  0  0  0  0  0  0  0  0  0  0  0
  -18.5670   13.2790   30.0148 O   0  0  0  0  0  0  0  0  0  0  0  0
  -18.6164   14.5422   30.6402 C   0  0  0  0  0  0  0  0  0  0  0  0
  -19.5723   15.4132   29.8989 C   0  0  0  0  0  0  0  0  0  0  0  0
  -20.0260   15.1310   28.6566 N   0  0  0  0  0  0  0  0  0  0  0  0
  -20.8757   16.0425   28.1874 N   0  0  0  0  0  0  0  0  0  0  0  0
  -21.0985   17.0485   29.0589 C   0  0  0  0  0  0  0  0  0  0  0  0
  -21.9696   18.1422   28.7858 N   0  0  0  0  0  0  0  0  0  0  0  0
  -20.2307   16.8509   30.4871 S   0  0  0  0  0  0  0  0  0  0  0  0
  -17.6452   11.4564   30.2188 H   0  0  0  0  0  0  0  0  0  0  0  0
  -17.9799   12.3001   31.7648 H   0  0  0  0  0  0  0  0  0  0  0  0
  -16.6283   12.8624   30.6691 H   0  0  0  0  0  0  0  0  0  0  0  0
  -17.6135   15.0277   30.6372 H   0  0  0  0  0  0  0  0  0  0  0  0
  -18.9775   14.4498   31.6893 H   0  0  0  0  0  0  0  0  0  0  0  0
  -22.1076   18.8959   29.4947 H   0  0  0  0  0  0  0  0  0  0  0  0
  -22.4759   18.1973   27.8746 H   0  0  0  0  0  0  0  0  0  0  0  0
  1  2  1  0
  2  3  1  0
  3  4  1  0
  4  5  2  0
  5  6  1  0
  6  7  2  0
  7  8  1  0
  7  9  1  0
  9  4  1  0
  1 10  1  0
  1 11  1  0
  1 12  1  0
  3 13  1  0
  3 14  1  0
  8 15  1  0
  8 16  1  0
M  END
>  <CHROM.1>  (1) 
179.84250546,-15.38155895,-0.41744142,-0.92025143,0.81763275

>  <Name>  (1) 
F600

>  <RI>  (1) 
4.2075e+07

>  <Rbt.Current_Directory>  (1) 
/data/out

>  <Rbt.Executable>  (1) 
rbdock ($Id: //depot/dev/client3/rdock/2013.1/src/exe/rbdock.cxx#4 $)

>  <Rbt.Library>  (1) 
libRbt.so (2013.1, Build901 2013/11/27)

>  <Rbt.Parameter_File>  (1) 
/python_libraries/phenodiscovery/docking/templates/RDOCK_TETHER.conf

>  <Rbt.Receptor>  (1) 
/data/out/rdock-opt/grid/rdock-grid.prm

>  <SCORE>  (1) 
1.87166

>  <SCORE.INTER>  (1) 
1.93185

>  <SCORE.INTER.CONST>  (1) 
1

>  <SCORE.INTER.POLAR>  (1) 
0

>  <SCORE.INTER.REPUL>  (1) 
0

>  <SCORE.INTER.ROT>  (1) 
2

>  <SCORE.INTER.VDW>  (1) 
-5.46815

>  <SCORE.INTER.norm>  (1) 
0.21465

>  <SCORE.INTRA>  (1) 
-0.060191

>  <SCORE.INTRA.DIHEDRAL>  (1) 
-0.0127315

>  <SCORE.INTRA.DIHEDRAL.0>  (1) 
1.3592

>  <SCORE.INTRA.POLAR>  (1) 
0

>  <SCORE.INTRA.POLAR.0>  (1) 
0

>  <SCORE.INTRA.REPUL>  (1) 
0

>  <SCORE.INTRA.REPUL.0>  (1) 
0

>  <SCORE.INTRA.VDW>  (1) 
-0.0538253

>  <SCORE.INTRA.VDW.0>  (1) 
0.672139

>  <SCORE.INTRA.norm>  (1) 
-0.00668789

>  <SCORE.RESTR>  (1) 
0

>  <SCORE.RESTR.CAVITY>  (1) 
0

>  <SCORE.RESTR.norm>  (1) 
0

>  <SCORE.SYSTEM>  (1) 
0

>  <SCORE.SYSTEM.CONST>  (1) 
0

>  <SCORE.SYSTEM.DIHEDRAL>  (1) 
0

>  <SCORE.SYSTEM.norm>  (1) 
0

>  <SCORE.heavy>  (1) 
9

>  <SCORE.norm>  (1) 
0.207962

>  <TETHERED ATOMS>  (1) 
1,2,3,4,9,7,6

>  <skeledock_score>  (1) 
34

$$$$
