F199
     RDKit          3D

 25 26  0  0  0  0  0  0  0  0999 V2000
  -14.8296   10.2762   20.8476 C   0  0  0  0  0  0  0  0  0  0  0  0
  -15.3304   11.1864   21.9181 C   0  0  0  0  0  0  0  0  0  0  0  0
  -16.5935   11.1889   22.4697 C   0  0  0  0  0  0  0  0  0  0  0  0
  -16.5340   12.2088   23.3988 C   0  0  0  0  0  0  0  0  0  0  0  0
  -15.3054   12.7636   23.3860 N   0  0  0  0  0  0  0  0  0  0  0  0
  -14.6127   12.1263   22.4872 O   0  0  0  0  0  0  0  0  0  0  0  0
  -17.6279   12.6395   24.2839 C   0  0  0  0  0  0  0  0  0  0  0  0
  -18.7646   12.1077   24.1645 O   0  0  0  0  0  0  0  0  0  0  0  0
  -17.4102   13.6808   25.2488 N   0  0  0  0  0  0  0  0  0  0  0  0
  -18.3410   14.0135   26.2883 C   0  0  0  0  0  0  0  0  0  0  0  0
  -18.4850   13.3467   27.4876 C   0  0  0  0  0  0  0  0  0  0  0  0
  -19.5058   13.9008   28.1726 N   0  0  0  0  0  0  0  0  0  0  0  0
  -19.9947   14.8893   27.4373 N   0  0  0  0  0  0  0  0  0  0  0  0
  -21.1640   15.6735   27.8087 C   0  0  0  0  0  0  0  0  0  0  0  0
  -19.3263   14.9793   26.2719 C   0  0  0  0  0  0  0  0  0  0  0  0
  -14.5100   10.8773   19.9712 H   0  0  0  0  0  0  0  0  0  0  0  0
  -15.6261    9.5696   20.5317 H   0  0  0  0  0  0  0  0  0  0  0  0
  -13.9631    9.6979   21.2298 H   0  0  0  0  0  0  0  0  0  0  0  0
  -17.4298   10.5447   22.2308 H   0  0  0  0  0  0  0  0  0  0  0  0
  -16.5538   14.2729   25.1606 H   0  0  0  0  0  0  0  0  0  0  0  0
  -17.8975   12.5073   27.8347 H   0  0  0  0  0  0  0  0  0  0  0  0
  -21.2775   15.6870   28.9135 H   0  0  0  0  0  0  0  0  0  0  0  0
  -22.0718   15.2244   27.3545 H   0  0  0  0  0  0  0  0  0  0  0  0
  -21.0522   16.7187   27.4497 H   0  0  0  0  0  0  0  0  0  0  0  0
  -19.5675   15.6666   25.4718 H   0  0  0  0  0  0  0  0  0  0  0  0
  1  2  1  0
  2  3  2  0
  3  4  1  0
  4  5  2  0
  5  6  1  0
  4  7  1  0
  7  8  2  0
  7  9  1  0
  9 10  1  0
 10 11  1  0
 11 12  2  0
 12 13  1  0
 13 14  1  0
 13 15  1  0
  6  2  1  0
 10 15  2  0
  1 16  1  0
  1 17  1  0
  1 18  1  0
  3 19  1  0
  9 20  1  0
 11 21  1  0
 14 22  1  0
 14 23  1  0
 14 24  1  0
 15 25  1  0
M  END
>  <CHROM.1>  (1) 
-4.42335376,80.75822512,-0.11355640,-1.18942574,2.51131034

>  <Name>  (1) 
F199

>  <RI>  (1) 
3.69012e+07

>  <Rbt.Current_Directory>  (1) 
/data/out

>  <Rbt.Executable>  (1) 
rbdock ($Id: //depot/dev/client3/rdock/2013.1/src/exe/rbdock.cxx#4 $)

>  <Rbt.Library>  (1) 
libRbt.so (2013.1, Build901 2013/11/27)

>  <Rbt.Parameter_File>  (1) 
/python_libraries/phenodiscovery/docking/templates/RDOCK_TETHER.conf

>  <Rbt.Receptor>  (1) 
/data/out/rdock-opt/grid/rdock-grid.prm

>  <SCORE>  (1) 
32.6544

>  <SCORE.INTER>  (1) 
10.5183

>  <SCORE.INTER.CONST>  (1) 
1

>  <SCORE.INTER.POLAR>  (1) 
0

>  <SCORE.INTER.REPUL>  (1) 
0.801928

>  <SCORE.INTER.ROT>  (1) 
2

>  <SCORE.INTER.VDW>  (1) 
-0.891288

>  <SCORE.INTER.norm>  (1) 
0.701223

>  <SCORE.INTRA>  (1) 
22.1361

>  <SCORE.INTRA.DIHEDRAL>  (1) 
45.04

>  <SCORE.INTRA.DIHEDRAL.0>  (1) 
5.37109

>  <SCORE.INTRA.POLAR>  (1) 
0

>  <SCORE.INTRA.POLAR.0>  (1) 
0

>  <SCORE.INTRA.REPUL>  (1) 
0

>  <SCORE.INTRA.REPUL.0>  (1) 
0

>  <SCORE.INTRA.VDW>  (1) 
-0.383919

>  <SCORE.INTRA.VDW.0>  (1) 
-0.950021

>  <SCORE.INTRA.norm>  (1) 
1.47574

>  <SCORE.RESTR>  (1) 
0

>  <SCORE.RESTR.CAVITY>  (1) 
0

>  <SCORE.RESTR.norm>  (1) 
0

>  <SCORE.SYSTEM>  (1) 
0

>  <SCORE.SYSTEM.CONST>  (1) 
0

>  <SCORE.SYSTEM.DIHEDRAL>  (1) 
0

>  <SCORE.SYSTEM.norm>  (1) 
0

>  <SCORE.heavy>  (1) 
15

>  <SCORE.norm>  (1) 
2.17696

>  <TETHERED ATOMS>  (1) 
7,9,10,11,15,8,13,12

>  <skeledock_score>  (1) 
42

$$$$
