F650
     RDKit          3D

 23 24  0  0  0  0  0  0  0  0999 V2000
  -20.0690   16.1349   27.0545 O   0  0  0  0  0  0  0  0  0  0  0  0
  -19.2005   15.9549   27.9501 C   0  0  0  0  0  0  0  0  0  0  0  0
  -17.9447   16.6542   27.8715 N   0  0  0  0  0  0  0  0  0  0  0  0
  -16.6913   16.1283   28.3897 C   0  0  0  0  0  0  0  0  0  0  0  0
  -15.6202   17.1291   27.9774 C   0  0  0  0  0  0  0  0  0  0  0  0
  -16.2437   17.9853   26.8796 C   0  0  0  0  0  0  0  0  0  0  0  0
  -17.7509   17.8144   27.0168 C   0  0  0  0  0  0  0  0  0  0  0  0
  -19.5066   15.0279   29.0538 C   0  0  0  0  0  0  0  0  0  0  0  0
  -20.5792   15.0979   29.9236 C   0  0  0  0  0  0  0  0  0  0  0  0
  -20.4615   14.1268   30.8501 N   0  0  0  0  0  0  0  0  0  0  0  0
  -19.3461   13.4604   30.5981 N   0  0  0  0  0  0  0  0  0  0  0  0
  -18.7353   13.9843   29.5214 C   0  0  0  0  0  0  0  0  0  0  0  0
  -16.4886   15.1333   27.9374 H   0  0  0  0  0  0  0  0  0  0  0  0
  -16.7172   16.0415   29.4939 H   0  0  0  0  0  0  0  0  0  0  0  0
  -14.7033   16.6142   27.6167 H   0  0  0  0  0  0  0  0  0  0  0  0
  -15.3576   17.7742   28.8448 H   0  0  0  0  0  0  0  0  0  0  0  0
  -15.9138   17.6104   25.8856 H   0  0  0  0  0  0  0  0  0  0  0  0
  -15.9472   19.0519   26.9823 H   0  0  0  0  0  0  0  0  0  0  0  0
  -18.2063   18.7075   27.4964 H   0  0  0  0  0  0  0  0  0  0  0  0
  -18.2084   17.6502   26.0166 H   0  0  0  0  0  0  0  0  0  0  0  0
  -21.3896   15.8141   29.8902 H   0  0  0  0  0  0  0  0  0  0  0  0
  -18.9962   12.6632   31.1739 H   0  0  0  0  0  0  0  0  0  0  0  0
  -17.7753   13.6584   29.1451 H   0  0  0  0  0  0  0  0  0  0  0  0
  1  2  2  0
  2  3  1  0
  3  4  1  0
  4  5  1  0
  5  6  1  0
  6  7  1  0
  2  8  1  0
  8  9  1  0
  9 10  2  0
 10 11  1  0
 11 12  1  0
  7  3  1  0
  8 12  2  0
  4 13  1  0
  4 14  1  0
  5 15  1  0
  5 16  1  0
  6 17  1  0
  6 18  1  0
  7 19  1  0
  7 20  1  0
  9 21  1  0
 11 22  1  0
 12 23  1  0
M  END
>  <CHROM.1>  (1) 
-56.99525997,1.56585981,0.46167735,-0.96376102

>  <Name>  (1) 
F650

>  <RI>  (1) 
2.8812e+07

>  <Rbt.Current_Directory>  (1) 
/data/out

>  <Rbt.Executable>  (1) 
rbdock ($Id: //depot/dev/client3/rdock/2013.1/src/exe/rbdock.cxx#4 $)

>  <Rbt.Library>  (1) 
libRbt.so (2013.1, Build901 2013/11/27)

>  <Rbt.Parameter_File>  (1) 
/python_libraries/phenodiscovery/docking/templates/RDOCK_TETHER.conf

>  <Rbt.Receptor>  (1) 
/data/out/rdock-opt/grid/rdock-grid.prm

>  <SCORE>  (1) 
2.82366

>  <SCORE.INTER>  (1) 
0.900842

>  <SCORE.INTER.CONST>  (1) 
1

>  <SCORE.INTER.POLAR>  (1) 
0

>  <SCORE.INTER.REPUL>  (1) 
0

>  <SCORE.INTER.ROT>  (1) 
1

>  <SCORE.INTER.VDW>  (1) 
-5.49916

>  <SCORE.INTER.norm>  (1) 
0.0750701

>  <SCORE.INTRA>  (1) 
1.92282

>  <SCORE.INTRA.DIHEDRAL>  (1) 
3.91513

>  <SCORE.INTRA.DIHEDRAL.0>  (1) 
3.49214

>  <SCORE.INTRA.POLAR>  (1) 
0

>  <SCORE.INTRA.POLAR.0>  (1) 
0

>  <SCORE.INTRA.REPUL>  (1) 
0

>  <SCORE.INTRA.REPUL.0>  (1) 
0

>  <SCORE.INTRA.VDW>  (1) 
-0.0347421

>  <SCORE.INTRA.VDW.0>  (1) 
-0.363253

>  <SCORE.INTRA.norm>  (1) 
0.160235

>  <SCORE.RESTR>  (1) 
0

>  <SCORE.RESTR.CAVITY>  (1) 
0

>  <SCORE.RESTR.norm>  (1) 
0

>  <SCORE.SYSTEM>  (1) 
0

>  <SCORE.SYSTEM.CONST>  (1) 
0

>  <SCORE.SYSTEM.DIHEDRAL>  (1) 
0

>  <SCORE.SYSTEM.norm>  (1) 
0

>  <SCORE.heavy>  (1) 
12

>  <SCORE.norm>  (1) 
0.235305

>  <TETHERED ATOMS>  (1) 
1,2,8,12,11,10,9

>  <skeledock_score>  (1) 
36

$$$$
