F709
     RDKit          3D

 29 30  0  0  0  0  0  0  0  0999 V2000
  -17.7966   10.6459   23.0659 N   0  0  0  0  0  0  0  0  0  0  0  0
  -17.6365   12.0532   23.2692 C   0  0  0  0  0  0  0  0  0  0  0  0
  -16.8167   12.6810   22.5456 O   0  0  0  0  0  0  0  0  0  0  0  0
  -18.3924   12.7541   24.2804 N   0  0  0  0  0  0  0  0  0  0  0  0
  -19.5872   12.1294   24.8713 C   0  0  0  0  0  0  0  0  0  0  0  0
  -20.4257   13.1401   25.6603 C   0  0  0  0  0  0  0  0  0  0  0  0
  -19.5679   13.9054   26.5750 N   0  0  0  0  0  0  0  0  0  0  0  0
  -18.2619   14.3991   26.1152 C   0  0  0  0  0  0  0  0  0  0  0  0
  -18.0526   14.1451   24.6179 C   0  0  0  0  0  0  0  0  0  0  0  0
  -19.9484   14.1210   27.9478 C   0  0  0  0  0  0  0  0  0  0  0  0
  -19.0569   14.1868   28.8367 O   0  0  0  0  0  0  0  0  0  0  0  0
  -21.3583   14.3166   28.3334 C   0  0  0  0  0  0  0  0  0  0  0  0
  -22.2660   13.3148   28.6194 C   0  0  0  0  0  0  0  0  0  0  0  0
  -23.4400   13.9588   28.9464 C   0  0  0  0  0  0  0  0  0  0  0  0
  -23.1773   15.3096   28.8443 C   0  0  0  0  0  0  0  0  0  0  0  0
  -21.9293   15.4905   28.4790 O   0  0  0  0  0  0  0  0  0  0  0  0
  -17.2584   10.1649   22.3114 H   0  0  0  0  0  0  0  0  0  0  0  0
  -18.4140   10.0662   23.6746 H   0  0  0  0  0  0  0  0  0  0  0  0
  -19.2704   11.3118   25.5543 H   0  0  0  0  0  0  0  0  0  0  0  0
  -20.2243   11.6992   24.0679 H   0  0  0  0  0  0  0  0  0  0  0  0
  -21.2131   12.5858   26.2152 H   0  0  0  0  0  0  0  0  0  0  0  0
  -20.9214   13.8408   24.9540 H   0  0  0  0  0  0  0  0  0  0  0  0
  -18.1873   15.4909   26.3095 H   0  0  0  0  0  0  0  0  0  0  0  0
  -17.4561   13.8842   26.6826 H   0  0  0  0  0  0  0  0  0  0  0  0
  -18.6963   14.8320   24.0269 H   0  0  0  0  0  0  0  0  0  0  0  0
  -16.9914   14.3682   24.3736 H   0  0  0  0  0  0  0  0  0  0  0  0
  -22.0960   12.2464   28.5949 H   0  0  0  0  0  0  0  0  0  0  0  0
  -24.3772   13.4982   29.2288 H   0  0  0  0  0  0  0  0  0  0  0  0
  -23.8807   16.1092   29.0335 H   0  0  0  0  0  0  0  0  0  0  0  0
  1  2  1  0
  2  3  2  0
  2  4  1  0
  4  5  1  0
  5  6  1  0
  6  7  1  0
  7  8  1  0
  8  9  1  0
  7 10  1  0
 10 11  2  0
 10 12  1  0
 12 13  2  0
 13 14  1  0
 14 15  2  0
 15 16  1  0
  9  4  1  0
 16 12  1  0
  1 17  1  0
  1 18  1  0
  5 19  1  0
  5 20  1  0
  6 21  1  0
  6 22  1  0
  8 23  1  0
  8 24  1  0
  9 25  1  0
  9 26  1  0
 13 27  1  0
 14 28  1  0
 15 29  1  0
M  END
>  <CHROM.1>  (1) 
86.40711708,0.10972039,-0.07937973,3.10664734

>  <Name>  (1) 
F709

>  <RI>  (1) 
2.68582e+07

>  <Rbt.Current_Directory>  (1) 
/data/out

>  <Rbt.Executable>  (1) 
rbdock ($Id: //depot/dev/client3/rdock/2013.1/src/exe/rbdock.cxx#4 $)

>  <Rbt.Library>  (1) 
libRbt.so (2013.1, Build901 2013/11/27)

>  <Rbt.Parameter_File>  (1) 
/python_libraries/phenodiscovery/docking/templates/RDOCK_TETHER.conf

>  <Rbt.Receptor>  (1) 
/data/out/rdock-opt/grid/rdock-grid.prm

>  <SCORE>  (1) 
-2.05423

>  <SCORE.INTER>  (1) 
-7.27542

>  <SCORE.INTER.CONST>  (1) 
1

>  <SCORE.INTER.POLAR>  (1) 
0

>  <SCORE.INTER.REPUL>  (1) 
0

>  <SCORE.INTER.ROT>  (1) 
1

>  <SCORE.INTER.VDW>  (1) 
-13.6754

>  <SCORE.INTER.norm>  (1) 
-0.454714

>  <SCORE.INTRA>  (1) 
5.22119

>  <SCORE.INTRA.DIHEDRAL>  (1) 
10.7602

>  <SCORE.INTRA.DIHEDRAL.0>  (1) 
0.52526

>  <SCORE.INTRA.POLAR>  (1) 
0

>  <SCORE.INTRA.POLAR.0>  (1) 
0

>  <SCORE.INTRA.REPUL>  (1) 
0

>  <SCORE.INTRA.REPUL.0>  (1) 
0

>  <SCORE.INTRA.VDW>  (1) 
-0.158918

>  <SCORE.INTRA.VDW.0>  (1) 
-0.858318

>  <SCORE.INTRA.norm>  (1) 
0.326325

>  <SCORE.RESTR>  (1) 
0

>  <SCORE.RESTR.CAVITY>  (1) 
0

>  <SCORE.RESTR.norm>  (1) 
0

>  <SCORE.SYSTEM>  (1) 
0

>  <SCORE.SYSTEM.CONST>  (1) 
0

>  <SCORE.SYSTEM.DIHEDRAL>  (1) 
0

>  <SCORE.SYSTEM.norm>  (1) 
0

>  <SCORE.heavy>  (1) 
16

>  <SCORE.norm>  (1) 
-0.128389

>  <TETHERED ATOMS>  (1) 
10,12,16,15,14,11,13

>  <skeledock_score>  (1) 
36

$$$$
