F763
     RDKit          3D

 19 19  0  0  0  0  0  0  0  0999 V2000
  -18.4021   14.2276   29.4033 O   0  0  0  0  0  0  0  0  0  0  0  0
  -19.0572   14.1549   28.3276 C   0  0  0  0  0  0  0  0  0  0  0  0
  -19.8301   15.2090   27.9040 N   0  0  0  0  0  0  0  0  0  0  0  0
  -19.9276   16.4412   28.7033 C   0  0  0  0  0  0  0  0  0  0  0  0
  -20.4673   16.1374   30.1002 C   0  0  0  0  0  0  0  0  0  0  0  0
  -19.4074   15.9715   31.0022 O   0  0  0  0  0  0  0  0  0  0  0  0
  -20.5080   15.1334   26.7169 C   0  0  0  0  0  0  0  0  0  0  0  0
  -20.4542   13.9766   25.9370 C   0  0  0  0  0  0  0  0  0  0  0  0
  -19.6941   12.8925   26.3709 C   0  0  0  0  0  0  0  0  0  0  0  0
  -19.6085   11.2991   25.3214 Br  0  0  0  0  0  0  0  0  0  0  0  0
  -18.9873   12.9815   27.5691 C   0  0  0  0  0  0  0  0  0  0  0  0
  -18.9301   16.9270   28.7940 H   0  0  0  0  0  0  0  0  0  0  0  0
  -20.5883   17.1797   28.1978 H   0  0  0  0  0  0  0  0  0  0  0  0
  -21.1415   16.9558   30.4409 H   0  0  0  0  0  0  0  0  0  0  0  0
  -21.0575   15.1970   30.0687 H   0  0  0  0  0  0  0  0  0  0  0  0
  -18.8281   15.2554   30.6313 H   0  0  0  0  0  0  0  0  0  0  0  0
  -21.1026   15.9694   26.3673 H   0  0  0  0  0  0  0  0  0  0  0  0
  -21.0007   13.9254   25.0040 H   0  0  0  0  0  0  0  0  0  0  0  0
  -18.3849   12.1469   27.9069 H   0  0  0  0  0  0  0  0  0  0  0  0
  1  2  2  0
  2  3  1  0
  3  4  1  0
  4  5  1  0
  5  6  1  0
  3  7  1  0
  7  8  2  0
  8  9  1  0
  9 10  1  0
  9 11  2  0
 11  2  1  0
  4 12  1  0
  4 13  1  0
  5 14  1  0
  5 15  1  0
  6 16  1  0
  7 17  1  0
  8 18  1  0
 11 19  1  0
M  END
>  <CHROM.1>  (1) 
-58.76904344,95.12554236,-56.00383834,-1.55139480,0.86378751,-2.19771060

>  <Name>  (1) 
F763

>  <RI>  (1) 
4.16777e+07

>  <Rbt.Current_Directory>  (1) 
/data/out

>  <Rbt.Executable>  (1) 
rbdock ($Id: //depot/dev/client3/rdock/2013.1/src/exe/rbdock.cxx#4 $)

>  <Rbt.Library>  (1) 
libRbt.so (2013.1, Build901 2013/11/27)

>  <Rbt.Parameter_File>  (1) 
/python_libraries/phenodiscovery/docking/templates/RDOCK_TETHER.conf

>  <Rbt.Receptor>  (1) 
/data/out/rdock-opt/grid/rdock-grid.prm

>  <SCORE>  (1) 
-0.937378

>  <SCORE.INTER>  (1) 
-0.153774

>  <SCORE.INTER.CONST>  (1) 
1

>  <SCORE.INTER.POLAR>  (1) 
0

>  <SCORE.INTER.REPUL>  (1) 
0

>  <SCORE.INTER.ROT>  (1) 
2

>  <SCORE.INTER.VDW>  (1) 
-7.55377

>  <SCORE.INTER.norm>  (1) 
-0.0139795

>  <SCORE.INTRA>  (1) 
-0.783604

>  <SCORE.INTRA.DIHEDRAL>  (1) 
2.39373

>  <SCORE.INTRA.DIHEDRAL.0>  (1) 
3.69728

>  <SCORE.INTRA.POLAR>  (1) 
-1

>  <SCORE.INTRA.POLAR.0>  (1) 
0

>  <SCORE.INTRA.REPUL>  (1) 
0

>  <SCORE.INTRA.REPUL.0>  (1) 
0

>  <SCORE.INTRA.VDW>  (1) 
1.41953

>  <SCORE.INTRA.VDW.0>  (1) 
0.0366504

>  <SCORE.INTRA.norm>  (1) 
-0.0712368

>  <SCORE.RESTR>  (1) 
0

>  <SCORE.RESTR.CAVITY>  (1) 
0

>  <SCORE.RESTR.norm>  (1) 
0

>  <SCORE.SYSTEM>  (1) 
0

>  <SCORE.SYSTEM.CONST>  (1) 
0

>  <SCORE.SYSTEM.DIHEDRAL>  (1) 
0

>  <SCORE.SYSTEM.norm>  (1) 
0

>  <SCORE.heavy>  (1) 
11

>  <SCORE.norm>  (1) 
-0.0852162

>  <TETHERED ATOMS>  (1) 
1,2,11,9,8,3,4,5,6

>  <skeledock_score>  (1) 
48

$$$$
