F369
     RDKit          3D

 32 33  0  0  0  0  0  0  0  0999 V2000
  -17.0293   11.5637   21.9100 C   0  0  0  0  0  0  0  0  0  0  0  0
  -17.0214   11.4759   23.4323 C   0  0  0  0  0  0  0  0  0  0  0  0
  -17.8069   12.5607   24.0145 N   0  0  0  0  0  0  0  0  0  0  0  0
  -18.0470   12.7486   25.3273 C   0  0  0  0  0  0  0  0  0  0  0  0
  -18.8046   13.8967   25.4474 C   0  0  0  0  0  0  0  0  0  0  0  0
  -19.2726   14.5424   26.6413 N   0  0  0  0  0  0  0  0  0  0  0  0
  -19.0577   14.0582   27.9772 C   0  0  0  0  0  0  0  0  0  0  0  0
  -18.5929   12.9030   28.1751 O   0  0  0  0  0  0  0  0  0  0  0  0
  -19.4185   14.9289   29.1556 C   0  0  0  0  0  0  0  0  0  0  0  0
  -19.4124   14.1715   30.4771 C   0  0  0  0  0  0  0  0  0  0  0  0
  -20.3492   14.9533   31.3906 C   0  0  0  0  0  0  0  0  0  0  0  0
  -21.2448   15.8010   30.4852 C   0  0  0  0  0  0  0  0  0  0  0  0
  -20.8192   15.5156   29.0495 C   0  0  0  0  0  0  0  0  0  0  0  0
  -18.9745   14.3705   24.1621 C   0  0  0  0  0  0  0  0  0  0  0  0
  -18.3568   13.5351   23.3040 N   0  0  0  0  0  0  0  0  0  0  0  0
  -18.0631   11.4463   21.5218 H   0  0  0  0  0  0  0  0  0  0  0  0
  -16.3965   10.7555   21.4867 H   0  0  0  0  0  0  0  0  0  0  0  0
  -16.6247   12.5451   21.5833 H   0  0  0  0  0  0  0  0  0  0  0  0
  -15.9707   11.5385   23.7905 H   0  0  0  0  0  0  0  0  0  0  0  0
  -17.4398   10.4981   23.7552 H   0  0  0  0  0  0  0  0  0  0  0  0
  -17.6691   12.1126   26.1155 H   0  0  0  0  0  0  0  0  0  0  0  0
  -19.8172   15.4258   26.5202 H   0  0  0  0  0  0  0  0  0  0  0  0
  -18.6944   15.7711   29.2378 H   0  0  0  0  0  0  0  0  0  0  0  0
  -19.8107   13.1405   30.3448 H   0  0  0  0  0  0  0  0  0  0  0  0
  -18.3868   14.1129   30.9028 H   0  0  0  0  0  0  0  0  0  0  0  0
  -20.9556   14.2609   32.0146 H   0  0  0  0  0  0  0  0  0  0  0  0
  -19.7571   15.6140   32.0617 H   0  0  0  0  0  0  0  0  0  0  0  0
  -21.1006   16.8800   30.7144 H   0  0  0  0  0  0  0  0  0  0  0  0
  -22.3165   15.5444   30.6337 H   0  0  0  0  0  0  0  0  0  0  0  0
  -21.5249   14.7805   28.6014 H   0  0  0  0  0  0  0  0  0  0  0  0
  -20.8215   16.4420   28.4347 H   0  0  0  0  0  0  0  0  0  0  0  0
  -19.5050   15.2668   23.8695 H   0  0  0  0  0  0  0  0  0  0  0  0
  1  2  1  0
  2  3  1  0
  3  4  1  0
  4  5  2  0
  5  6  1  0
  6  7  1  0
  7  8  2  0
  7  9  1  0
  9 10  1  0
 10 11  1  0
 11 12  1  0
 12 13  1  0
  5 14  1  0
 14 15  2  0
 15  3  1  0
 13  9  1  0
  1 16  1  0
  1 17  1  0
  1 18  1  0
  2 19  1  0
  2 20  1  0
  4 21  1  0
  6 22  1  0
  9 23  1  0
 10 24  1  0
 10 25  1  0
 11 26  1  0
 11 27  1  0
 12 28  1  0
 12 29  1  0
 13 30  1  0
 13 31  1  0
 14 32  1  0
M  END
>  <CHROM.1>  (1) 
177.38071870,-2.15488881,167.70386260,1.12626174,0.80632612,-1.48372324

>  <Name>  (1) 
F369

>  <RI>  (1) 
2.73866e+07

>  <Rbt.Current_Directory>  (1) 
/data/out

>  <Rbt.Executable>  (1) 
rbdock ($Id: //depot/dev/client3/rdock/2013.1/src/exe/rbdock.cxx#4 $)

>  <Rbt.Library>  (1) 
libRbt.so (2013.1, Build901 2013/11/27)

>  <Rbt.Parameter_File>  (1) 
/python_libraries/phenodiscovery/docking/templates/RDOCK_TETHER.conf

>  <Rbt.Receptor>  (1) 
/data/out/rdock-opt/grid/rdock-grid.prm

>  <SCORE>  (1) 
-1.78833

>  <SCORE.INTER>  (1) 
-0.137492

>  <SCORE.INTER.CONST>  (1) 
1

>  <SCORE.INTER.POLAR>  (1) 
0

>  <SCORE.INTER.REPUL>  (1) 
0

>  <SCORE.INTER.ROT>  (1) 
3

>  <SCORE.INTER.VDW>  (1) 
-8.53749

>  <SCORE.INTER.norm>  (1) 
-0.00916615

>  <SCORE.INTRA>  (1) 
-1.65084

>  <SCORE.INTRA.DIHEDRAL>  (1) 
-4.26033

>  <SCORE.INTRA.DIHEDRAL.0>  (1) 
7.55637

>  <SCORE.INTRA.POLAR>  (1) 
0

>  <SCORE.INTRA.POLAR.0>  (1) 
0

>  <SCORE.INTRA.REPUL>  (1) 
0

>  <SCORE.INTRA.REPUL.0>  (1) 
0

>  <SCORE.INTRA.VDW>  (1) 
0.479329

>  <SCORE.INTRA.VDW.0>  (1) 
-1.51072

>  <SCORE.INTRA.norm>  (1) 
-0.110056

>  <SCORE.RESTR>  (1) 
0

>  <SCORE.RESTR.CAVITY>  (1) 
0

>  <SCORE.RESTR.norm>  (1) 
0

>  <SCORE.SYSTEM>  (1) 
0

>  <SCORE.SYSTEM.CONST>  (1) 
0

>  <SCORE.SYSTEM.DIHEDRAL>  (1) 
0

>  <SCORE.SYSTEM.norm>  (1) 
0

>  <SCORE.heavy>  (1) 
15

>  <SCORE.norm>  (1) 
-0.119222

>  <TETHERED ATOMS>  (1) 
5,6,7,9,13,14,12,4,11,10

>  <skeledock_score>  (1) 
40

$$$$
