F666
     RDKit          3D

 35 37  0  0  0  0  0  0  0  0999 V2000
  -23.2628   17.4383   30.9188 F   0  0  0  0  0  0  0  0  0  0  0  0
  -22.1558   16.7676   30.5234 C   0  0  0  0  0  0  0  0  0  0  0  0
  -22.0423   16.3113   29.2052 C   0  0  0  0  0  0  0  0  0  0  0  0
  -20.9018   15.6096   28.8036 C   0  0  0  0  0  0  0  0  0  0  0  0
  -19.8697   15.3731   29.7207 C   0  0  0  0  0  0  0  0  0  0  0  0
  -19.9948   15.8256   31.0442 C   0  0  0  0  0  0  0  0  0  0  0  0
  -21.1337   16.5247   31.4416 C   0  0  0  0  0  0  0  0  0  0  0  0
  -18.7183   14.6165   29.3323 N   0  0  0  0  0  0  0  0  0  0  0  0
  -18.8690   13.1748   29.0811 C   0  0  0  0  0  0  0  0  0  0  0  0
  -17.9964   12.7186   27.9036 C   0  0  0  0  0  0  0  0  0  0  0  0
  -17.9781   13.7498   26.8520 N   0  0  0  0  0  0  0  0  0  0  0  0
  -17.6737   15.1477   27.2018 C   0  0  0  0  0  0  0  0  0  0  0  0
  -17.5971   15.3317   28.7192 C   0  0  0  0  0  0  0  0  0  0  0  0
  -18.2452   13.4166   25.4768 C   0  0  0  0  0  0  0  0  0  0  0  0
  -18.7283   14.2854   24.7031 O   0  0  0  0  0  0  0  0  0  0  0  0
  -17.9797   12.0417   24.9390 C   0  0  0  0  0  0  0  0  0  0  0  0
  -19.1395   11.0672   25.0858 C   0  0  0  0  0  0  0  0  0  0  0  0
  -18.8174   11.6619   23.7266 C   0  0  0  0  0  0  0  0  0  0  0  0
  -22.8397   16.4962   28.4970 H   0  0  0  0  0  0  0  0  0  0  0  0
  -20.8204   15.2494   27.7857 H   0  0  0  0  0  0  0  0  0  0  0  0
  -19.2166   15.6211   31.7689 H   0  0  0  0  0  0  0  0  0  0  0  0
  -21.2270   16.8705   32.4631 H   0  0  0  0  0  0  0  0  0  0  0  0
  -18.5940   12.6106   29.9974 H   0  0  0  0  0  0  0  0  0  0  0  0
  -19.9263   12.9295   28.8398 H   0  0  0  0  0  0  0  0  0  0  0  0
  -16.9570   12.5517   28.2602 H   0  0  0  0  0  0  0  0  0  0  0  0
  -18.3822   11.7489   27.5233 H   0  0  0  0  0  0  0  0  0  0  0  0
  -18.4782   15.8091   26.8123 H   0  0  0  0  0  0  0  0  0  0  0  0
  -16.7106   15.4496   26.7374 H   0  0  0  0  0  0  0  0  0  0  0  0
  -17.6193   16.4141   28.9758 H   0  0  0  0  0  0  0  0  0  0  0  0
  -16.6407   14.9128   29.1005 H   0  0  0  0  0  0  0  0  0  0  0  0
  -16.9625   11.5996   24.9933 H   0  0  0  0  0  0  0  0  0  0  0  0
  -20.0705   11.4712   25.5395 H   0  0  0  0  0  0  0  0  0  0  0  0
  -18.8384   10.0037   25.1920 H   0  0  0  0  0  0  0  0  0  0  0  0
  -19.5530   12.4208   23.3819 H   0  0  0  0  0  0  0  0  0  0  0  0
  -18.3209   10.9540   23.0299 H   0  0  0  0  0  0  0  0  0  0  0  0
  1  2  1  0
  2  3  2  0
  3  4  1  0
  4  5  2  0
  5  6  1  0
  6  7  2  0
  5  8  1  0
  8  9  1  0
  9 10  1  0
 10 11  1  0
 11 12  1  0
 12 13  1  0
 11 14  1  0
 14 15  2  0
 14 16  1  0
 16 17  1  0
 17 18  1  0
  2  7  1  0
 13  8  1  0
 18 16  1  0
  3 19  1  0
  4 20  1  0
  6 21  1  0
  7 22  1  0
  9 23  1  0
  9 24  1  0
 10 25  1  0
 10 26  1  0
 12 27  1  0
 12 28  1  0
 13 29  1  0
 13 30  1  0
 16 31  1  0
 17 32  1  0
 17 33  1  0
 18 34  1  0
 18 35  1  0
M  END
>  <CHROM.1>  (1) 
-69.51223148,88.49286301,-0.68501883,-0.71373981,1.56879850

>  <Name>  (1) 
F666

>  <RI>  (1) 
1.98499e+07

>  <Rbt.Current_Directory>  (1) 
/data/out

>  <Rbt.Executable>  (1) 
rbdock ($Id: //depot/dev/client3/rdock/2013.1/src/exe/rbdock.cxx#4 $)

>  <Rbt.Library>  (1) 
libRbt.so (2013.1, Build901 2013/11/27)

>  <Rbt.Parameter_File>  (1) 
/python_libraries/phenodiscovery/docking/templates/RDOCK_TETHER.conf

>  <Rbt.Receptor>  (1) 
/data/out/rdock-opt/grid/rdock-grid.prm

>  <SCORE>  (1) 
-2.65322

>  <SCORE.INTER>  (1) 
-3.22632

>  <SCORE.INTER.CONST>  (1) 
1

>  <SCORE.INTER.POLAR>  (1) 
0

>  <SCORE.INTER.REPUL>  (1) 
0

>  <SCORE.INTER.ROT>  (1) 
2

>  <SCORE.INTER.VDW>  (1) 
-10.6263

>  <SCORE.INTER.norm>  (1) 
-0.17924

>  <SCORE.INTRA>  (1) 
0.573098

>  <SCORE.INTRA.DIHEDRAL>  (1) 
-0.285186

>  <SCORE.INTRA.DIHEDRAL.0>  (1) 
2.67477

>  <SCORE.INTRA.POLAR>  (1) 
0

>  <SCORE.INTRA.POLAR.0>  (1) 
0

>  <SCORE.INTRA.REPUL>  (1) 
0

>  <SCORE.INTRA.REPUL.0>  (1) 
0

>  <SCORE.INTRA.VDW>  (1) 
0.715691

>  <SCORE.INTRA.VDW.0>  (1) 
-3.23548

>  <SCORE.INTRA.norm>  (1) 
0.0318388

>  <SCORE.RESTR>  (1) 
0

>  <SCORE.RESTR.CAVITY>  (1) 
0

>  <SCORE.RESTR.norm>  (1) 
0

>  <SCORE.SYSTEM>  (1) 
0

>  <SCORE.SYSTEM.CONST>  (1) 
0

>  <SCORE.SYSTEM.DIHEDRAL>  (1) 
0

>  <SCORE.SYSTEM.norm>  (1) 
0

>  <SCORE.heavy>  (1) 
18

>  <SCORE.norm>  (1) 
-0.147401

>  <TETHERED ATOMS>  (1) 
9,10,11,14,15,16,1,2,3,4,5,8

>  <skeledock_score>  (1) 
52

$$$$
