F763
     RDKit          3D

 19 19  0  0  0  0  0  0  0  0999 V2000
  -17.2753   14.2894   29.1357 O   0  0  0  0  0  0  0  0  0  0  0  0
  -18.4503   14.6171   29.4568 C   0  0  0  0  0  0  0  0  0  0  0  0
  -19.5316   14.1172   28.7714 N   0  0  0  0  0  0  0  0  0  0  0  0
  -19.3535   13.1918   27.6387 C   0  0  0  0  0  0  0  0  0  0  0  0
  -19.1016   13.9568   26.3391 C   0  0  0  0  0  0  0  0  0  0  0  0
  -20.1728   14.8179   26.0716 O   0  0  0  0  0  0  0  0  0  0  0  0
  -20.8011   14.4954   29.1190 C   0  0  0  0  0  0  0  0  0  0  0  0
  -21.0196   15.3703   30.1849 C   0  0  0  0  0  0  0  0  0  0  0  0
  -19.9304   15.8724   30.8935 C   0  0  0  0  0  0  0  0  0  0  0  0
  -20.2058   17.0730   32.3531 Br  0  0  0  0  0  0  0  0  0  0  0  0
  -18.6385   15.4988   30.5272 C   0  0  0  0  0  0  0  0  0  0  0  0
  -20.2626   12.5619   27.5142 H   0  0  0  0  0  0  0  0  0  0  0  0
  -18.5155   12.4854   27.8283 H   0  0  0  0  0  0  0  0  0  0  0  0
  -18.1673   14.5512   26.4476 H   0  0  0  0  0  0  0  0  0  0  0  0
  -18.9700   13.2373   25.4999 H   0  0  0  0  0  0  0  0  0  0  0  0
  -19.9449   15.2860   25.2268 H   0  0  0  0  0  0  0  0  0  0  0  0
  -21.6574   14.1176   28.5723 H   0  0  0  0  0  0  0  0  0  0  0  0
  -22.0283   15.6566   30.4535 H   0  0  0  0  0  0  0  0  0  0  0  0
  -17.7864   15.8897   31.0700 H   0  0  0  0  0  0  0  0  0  0  0  0
  1  2  2  0
  2  3  1  0
  3  4  1  0
  4  5  1  0
  5  6  1  0
  3  7  1  0
  7  8  2  0
  8  9  1  0
  9 10  1  0
  9 11  2  0
 11  2  1  0
  4 12  1  0
  4 13  1  0
  5 14  1  0
  5 15  1  0
  6 16  1  0
  7 17  1  0
  8 18  1  0
 11 19  1  0
M  END
>  <CHROM.1>  (1) 
-84.74504602,-58.68161765,179.51598359,-1.57580775,0.50421414,-1.88837117

>  <Name>  (1) 
F763

>  <RI>  (1) 
3.45658e+07

>  <Rbt.Current_Directory>  (1) 
/data/out

>  <Rbt.Executable>  (1) 
rbdock ($Id: //depot/dev/client3/rdock/2013.1/src/exe/rbdock.cxx#4 $)

>  <Rbt.Library>  (1) 
libRbt.so (2013.1, Build901 2013/11/27)

>  <Rbt.Parameter_File>  (1) 
/python_libraries/phenodiscovery/docking/templates/RDOCK_TETHER.conf

>  <Rbt.Receptor>  (1) 
/data/out/rdock-opt/grid/rdock-grid.prm

>  <SCORE>  (1) 
1.15069

>  <SCORE.INTER>  (1) 
1.28582

>  <SCORE.INTER.CONST>  (1) 
1

>  <SCORE.INTER.POLAR>  (1) 
0

>  <SCORE.INTER.REPUL>  (1) 
0

>  <SCORE.INTER.ROT>  (1) 
2

>  <SCORE.INTER.VDW>  (1) 
-6.11418

>  <SCORE.INTER.norm>  (1) 
0.116893

>  <SCORE.INTRA>  (1) 
-0.135126

>  <SCORE.INTRA.DIHEDRAL>  (1) 
-0.206107

>  <SCORE.INTRA.DIHEDRAL.0>  (1) 
2.69572

>  <SCORE.INTRA.POLAR>  (1) 
0

>  <SCORE.INTRA.POLAR.0>  (1) 
0

>  <SCORE.INTRA.REPUL>  (1) 
0

>  <SCORE.INTRA.REPUL.0>  (1) 
0

>  <SCORE.INTRA.VDW>  (1) 
-0.0320727

>  <SCORE.INTRA.VDW.0>  (1) 
0.10081

>  <SCORE.INTRA.norm>  (1) 
-0.0122842

>  <SCORE.RESTR>  (1) 
0

>  <SCORE.RESTR.CAVITY>  (1) 
0

>  <SCORE.RESTR.norm>  (1) 
0

>  <SCORE.SYSTEM>  (1) 
0

>  <SCORE.SYSTEM.CONST>  (1) 
0

>  <SCORE.SYSTEM.DIHEDRAL>  (1) 
0

>  <SCORE.SYSTEM.norm>  (1) 
0

>  <SCORE.heavy>  (1) 
11

>  <SCORE.norm>  (1) 
0.104608

>  <TETHERED ATOMS>  (1) 
2,11,9,8,3,4,5,6

>  <skeledock_score>  (1) 
43

$$$$
