F367
     RDKit          3D

 31 32  0  0  0  0  0  0  0  0999 V2000
  -14.2833   13.9924   22.8136 C   0  0  0  0  0  0  0  0  0  0  0  0
  -15.4251   12.9832   22.8292 C   0  0  0  0  0  0  0  0  0  0  0  0
  -16.5509   13.4994   23.6029 N   0  0  0  0  0  0  0  0  0  0  0  0
  -17.7161   12.8629   23.8269 C   0  0  0  0  0  0  0  0  0  0  0  0
  -18.5099   13.6934   24.5876 C   0  0  0  0  0  0  0  0  0  0  0  0
  -19.8572   13.3817   25.1595 C   0  0  0  0  0  0  0  0  0  0  0  0
  -20.0724   14.1171   26.4050 N   0  0  0  0  0  0  0  0  0  0  0  0
  -19.3044   13.8219   27.5809 C   0  0  0  0  0  0  0  0  0  0  0  0
  -18.4468   12.8968   27.5521 O   0  0  0  0  0  0  0  0  0  0  0  0
  -19.4616   14.6242   28.8125 C   0  0  0  0  0  0  0  0  0  0  0  0
  -19.1620   14.0600   30.0619 C   0  0  0  0  0  0  0  0  0  0  0  0
  -19.2823   14.8238   31.2234 C   0  0  0  0  0  0  0  0  0  0  0  0
  -19.7183   16.1455   31.1300 C   0  0  0  0  0  0  0  0  0  0  0  0
  -20.0223   16.6772   29.9168 N   0  0  0  0  0  0  0  0  0  0  0  0
  -19.9040   15.9572   28.7686 C   0  0  0  0  0  0  0  0  0  0  0  0
  -17.7505   14.8261   24.8090 C   0  0  0  0  0  0  0  0  0  0  0  0
  -16.5611   14.6871   24.1906 N   0  0  0  0  0  0  0  0  0  0  0  0
  -14.6112   14.9369   22.3298 H   0  0  0  0  0  0  0  0  0  0  0  0
  -13.4262   13.5777   22.2424 H   0  0  0  0  0  0  0  0  0  0  0  0
  -13.9524   14.2085   23.8517 H   0  0  0  0  0  0  0  0  0  0  0  0
  -15.7565   12.7779   21.7887 H   0  0  0  0  0  0  0  0  0  0  0  0
  -15.0593   12.0304   23.2709 H   0  0  0  0  0  0  0  0  0  0  0  0
  -17.9631   11.8685   23.4772 H   0  0  0  0  0  0  0  0  0  0  0  0
  -19.9217   12.2895   25.3553 H   0  0  0  0  0  0  0  0  0  0  0  0
  -20.6459   13.6555   24.4264 H   0  0  0  0  0  0  0  0  0  0  0  0
  -20.7336   14.9267   26.4169 H   0  0  0  0  0  0  0  0  0  0  0  0
  -18.8174   13.0359   30.1377 H   0  0  0  0  0  0  0  0  0  0  0  0
  -19.0420   14.3945   32.1874 H   0  0  0  0  0  0  0  0  0  0  0  0
  -19.8203   16.7479   32.0226 H   0  0  0  0  0  0  0  0  0  0  0  0
  -20.1709   16.4223   27.8291 H   0  0  0  0  0  0  0  0  0  0  0  0
  -18.0392   15.6908   25.3916 H   0  0  0  0  0  0  0  0  0  0  0  0
  1  2  1  0
  2  3  1  0
  3  4  1  0
  4  5  2  0
  5  6  1  0
  6  7  1  0
  7  8  1  0
  8  9  2  0
  8 10  1  0
 10 11  2  0
 11 12  1  0
 12 13  2  0
 13 14  1  0
 14 15  2  0
  5 16  1  0
 16 17  2  0
 17  3  1  0
 10 15  1  0
  1 18  1  0
  1 19  1  0
  1 20  1  0
  2 21  1  0
  2 22  1  0
  4 23  1  0
  6 24  1  0
  6 25  1  0
  7 26  1  0
 11 27  1  0
 12 28  1  0
 13 29  1  0
 15 30  1  0
 16 31  1  0
M  END
>  <CHROM.1>  (1) 
-179.53229753,149.86038181,-67.40594898,154.30646432,1.43181302,1.21485635
-1.80606888

>  <Name>  (1) 
F367

>  <RI>  (1) 
4.24056e+07

>  <Rbt.Current_Directory>  (1) 
/data/out

>  <Rbt.Executable>  (1) 
rbdock ($Id: //depot/dev/client3/rdock/2013.1/src/exe/rbdock.cxx#4 $)

>  <Rbt.Library>  (1) 
libRbt.so (2013.1, Build901 2013/11/27)

>  <Rbt.Parameter_File>  (1) 
/python_libraries/phenodiscovery/docking/templates/RDOCK_TETHER.conf

>  <Rbt.Receptor>  (1) 
/data/out/rdock-opt/grid/rdock-grid.prm

>  <SCORE>  (1) 
-4.5002

>  <SCORE.INTER>  (1) 
-3.54185

>  <SCORE.INTER.CONST>  (1) 
1

>  <SCORE.INTER.POLAR>  (1) 
0

>  <SCORE.INTER.REPUL>  (1) 
0

>  <SCORE.INTER.ROT>  (1) 
4

>  <SCORE.INTER.VDW>  (1) 
-12.9419

>  <SCORE.INTER.norm>  (1) 
-0.208344

>  <SCORE.INTRA>  (1) 
-0.958347

>  <SCORE.INTRA.DIHEDRAL>  (1) 
-1.66258

>  <SCORE.INTRA.DIHEDRAL.0>  (1) 
8.96606

>  <SCORE.INTRA.POLAR>  (1) 
0

>  <SCORE.INTRA.POLAR.0>  (1) 
0

>  <SCORE.INTRA.REPUL>  (1) 
0

>  <SCORE.INTRA.REPUL.0>  (1) 
0

>  <SCORE.INTRA.VDW>  (1) 
-0.127057

>  <SCORE.INTRA.VDW.0>  (1) 
-2.00797

>  <SCORE.INTRA.norm>  (1) 
-0.0563734

>  <SCORE.RESTR>  (1) 
0

>  <SCORE.RESTR.CAVITY>  (1) 
0

>  <SCORE.RESTR.norm>  (1) 
0

>  <SCORE.SYSTEM>  (1) 
0

>  <SCORE.SYSTEM.CONST>  (1) 
0

>  <SCORE.SYSTEM.DIHEDRAL>  (1) 
0

>  <SCORE.SYSTEM.norm>  (1) 
0

>  <SCORE.heavy>  (1) 
17

>  <SCORE.norm>  (1) 
-0.264718

>  <TETHERED ATOMS>  (1) 
5,6,7,8,10,15,14,13,11,12

>  <skeledock_score>  (1) 
47

$$$$
