F274
     RDKit          3D

 26 27  0  0  0  0  0  0  0  0999 V2000
  -23.7760   12.6947   30.3283 C   0  0  0  0  0  0  0  0  0  0  0  0
  -22.6615   12.8745   29.3531 C   0  0  0  0  0  0  0  0  0  0  0  0
  -22.7857   13.3483   28.0644 C   0  0  0  0  0  0  0  0  0  0  0  0
  -21.4905   13.3262   27.5934 C   0  0  0  0  0  0  0  0  0  0  0  0
  -21.0285   13.7591   26.2378 C   0  0  0  0  0  0  0  0  0  0  0  0
  -19.6721   14.3102   26.3166 N   0  0  0  0  0  0  0  0  0  0  0  0
  -19.5292   15.6059   26.6151 N   0  0  0  0  0  0  0  0  0  0  0  0
  -18.3093   16.2005   26.6986 C   0  0  0  0  0  0  0  0  0  0  0  0
  -18.2051   17.6523   27.0408 C   0  0  0  0  0  0  0  0  0  0  0  0
  -17.1622   15.4393   26.4740 C   0  0  0  0  0  0  0  0  0  0  0  0
  -17.2957   14.0898   26.1651 C   0  0  0  0  0  0  0  0  0  0  0  0
  -18.5703   13.5274   26.0869 C   0  0  0  0  0  0  0  0  0  0  0  0
  -18.6919   12.3035   25.8072 O   0  0  0  0  0  0  0  0  0  0  0  0
  -20.6980   12.8788   28.5399 O   0  0  0  0  0  0  0  0  0  0  0  0
  -21.3704   12.5944   29.6174 N   0  0  0  0  0  0  0  0  0  0  0  0
  -23.3856   12.2991   31.2894 H   0  0  0  0  0  0  0  0  0  0  0  0
  -24.2706   13.6710   30.5133 H   0  0  0  0  0  0  0  0  0  0  0  0
  -24.5188   11.9792   29.9176 H   0  0  0  0  0  0  0  0  0  0  0  0
  -23.6829   13.6663   27.5495 H   0  0  0  0  0  0  0  0  0  0  0  0
  -21.0424   12.8723   25.5673 H   0  0  0  0  0  0  0  0  0  0  0  0
  -21.7242   14.5104   25.8038 H   0  0  0  0  0  0  0  0  0  0  0  0
  -17.6732   17.7714   28.0080 H   0  0  0  0  0  0  0  0  0  0  0  0
  -17.6440   18.1870   26.2456 H   0  0  0  0  0  0  0  0  0  0  0  0
  -19.2153   18.1056   27.1297 H   0  0  0  0  0  0  0  0  0  0  0  0
  -16.1778   15.8863   26.5381 H   0  0  0  0  0  0  0  0  0  0  0  0
  -16.4143   13.4857   25.9876 H   0  0  0  0  0  0  0  0  0  0  0  0
  1  2  1  0
  2  3  1  0
  3  4  2  0
  4  5  1  0
  5  6  1  0
  6  7  1  0
  7  8  2  0
  8  9  1  0
  8 10  1  0
 10 11  2  0
 11 12  1  0
 12 13  2  0
  4 14  1  0
 14 15  1  0
  2 15  2  0
 12  6  1  0
  1 16  1  0
  1 17  1  0
  1 18  1  0
  3 19  1  0
  5 20  1  0
  5 21  1  0
  9 22  1  0
  9 23  1  0
  9 24  1  0
 10 25  1  0
 11 26  1  0
M  END
>  <CHROM.1>  (1) 
147.95638863,-86.30900848,1.56784712,-0.03963550,-2.91206996

>  <Name>  (1) 
F274

>  <RI>  (1) 
3.19184e+07

>  <Rbt.Current_Directory>  (1) 
/data/out

>  <Rbt.Executable>  (1) 
rbdock ($Id: //depot/dev/client3/rdock/2013.1/src/exe/rbdock.cxx#4 $)

>  <Rbt.Library>  (1) 
libRbt.so (2013.1, Build901 2013/11/27)

>  <Rbt.Parameter_File>  (1) 
/python_libraries/phenodiscovery/docking/templates/RDOCK_TETHER.conf

>  <Rbt.Receptor>  (1) 
/data/out/rdock-opt/grid/rdock-grid.prm

>  <SCORE>  (1) 
9.80491

>  <SCORE.INTER>  (1) 
8.88759

>  <SCORE.INTER.CONST>  (1) 
1

>  <SCORE.INTER.POLAR>  (1) 
0

>  <SCORE.INTER.REPUL>  (1) 
0

>  <SCORE.INTER.ROT>  (1) 
2

>  <SCORE.INTER.VDW>  (1) 
1.48759

>  <SCORE.INTER.norm>  (1) 
0.592506

>  <SCORE.INTRA>  (1) 
0.917321

>  <SCORE.INTRA.DIHEDRAL>  (1) 
0.737412

>  <SCORE.INTRA.DIHEDRAL.0>  (1) 
2.84332

>  <SCORE.INTRA.POLAR>  (1) 
0

>  <SCORE.INTRA.POLAR.0>  (1) 
0

>  <SCORE.INTRA.REPUL>  (1) 
0

>  <SCORE.INTRA.REPUL.0>  (1) 
0

>  <SCORE.INTRA.VDW>  (1) 
0.548615

>  <SCORE.INTRA.VDW.0>  (1) 
-1.29197

>  <SCORE.INTRA.norm>  (1) 
0.0611547

>  <SCORE.RESTR>  (1) 
0

>  <SCORE.RESTR.CAVITY>  (1) 
0

>  <SCORE.RESTR.norm>  (1) 
0

>  <SCORE.SYSTEM>  (1) 
0

>  <SCORE.SYSTEM.CONST>  (1) 
0

>  <SCORE.SYSTEM.DIHEDRAL>  (1) 
0

>  <SCORE.SYSTEM.norm>  (1) 
0

>  <SCORE.heavy>  (1) 
15

>  <SCORE.norm>  (1) 
0.653661

>  <TETHERED ATOMS>  (1) 
5,6,12,13,7,11,8

>  <skeledock_score>  (1) 
40

$$$$
