F199
     RDKit          3D

 25 26  0  0  0  0  0  0  0  0999 V2000
  -21.5933   18.3802   28.8563 C   0  0  0  0  0  0  0  0  0  0  0  0
  -20.9172   17.0534   28.9424 C   0  0  0  0  0  0  0  0  0  0  0  0
  -20.4724   16.2880   27.8864 C   0  0  0  0  0  0  0  0  0  0  0  0
  -19.9323   15.1765   28.5020 C   0  0  0  0  0  0  0  0  0  0  0  0
  -20.0561   15.2927   29.8395 N   0  0  0  0  0  0  0  0  0  0  0  0
  -20.6508   16.4287   30.0655 O   0  0  0  0  0  0  0  0  0  0  0  0
  -19.2903   14.0401   27.8227 C   0  0  0  0  0  0  0  0  0  0  0  0
  -19.0458   12.9893   28.4749 O   0  0  0  0  0  0  0  0  0  0  0  0
  -18.9224   14.1375   26.4388 N   0  0  0  0  0  0  0  0  0  0  0  0
  -18.5424   13.0136   25.6329 C   0  0  0  0  0  0  0  0  0  0  0  0
  -18.6167   11.6688   25.9510 C   0  0  0  0  0  0  0  0  0  0  0  0
  -18.2082   10.9514   24.8848 N   0  0  0  0  0  0  0  0  0  0  0  0
  -17.9041   11.8045   23.9170 N   0  0  0  0  0  0  0  0  0  0  0  0
  -17.3707   11.4066   22.6218 C   0  0  0  0  0  0  0  0  0  0  0  0
  -18.0915   13.0702   24.3349 C   0  0  0  0  0  0  0  0  0  0  0  0
  -21.7031   18.6945   27.7968 H   0  0  0  0  0  0  0  0  0  0  0  0
  -20.9905   19.1379   29.3984 H   0  0  0  0  0  0  0  0  0  0  0  0
  -22.5991   18.3130   29.3202 H   0  0  0  0  0  0  0  0  0  0  0  0
  -20.5294   16.5097   26.8285 H   0  0  0  0  0  0  0  0  0  0  0  0
  -18.8798   15.0843   25.9990 H   0  0  0  0  0  0  0  0  0  0  0  0
  -18.9590   11.2325   26.8790 H   0  0  0  0  0  0  0  0  0  0  0  0
  -16.2644   11.4961   22.6325 H   0  0  0  0  0  0  0  0  0  0  0  0
  -17.7843   12.0584   21.8231 H   0  0  0  0  0  0  0  0  0  0  0  0
  -17.6491   10.3541   22.4021 H   0  0  0  0  0  0  0  0  0  0  0  0
  -17.9122   13.9587   23.7427 H   0  0  0  0  0  0  0  0  0  0  0  0
  1  2  1  0
  2  3  2  0
  3  4  1  0
  4  5  2  0
  5  6  1  0
  4  7  1  0
  7  8  2  0
  7  9  1  0
  9 10  1  0
 10 11  1  0
 11 12  2  0
 12 13  1  0
 13 14  1  0
 13 15  1  0
  6  2  1  0
 10 15  2  0
  1 16  1  0
  1 17  1  0
  1 18  1  0
  3 19  1  0
  9 20  1  0
 11 21  1  0
 14 22  1  0
 14 23  1  0
 14 24  1  0
 15 25  1  0
M  END
>  <CHROM.1>  (1) 
-167.86594631,8.85222283,2.84008417,-1.17819254,2.09794430

>  <Name>  (1) 
F199

>  <RI>  (1) 
3.18145e+07

>  <Rbt.Current_Directory>  (1) 
/data/out

>  <Rbt.Executable>  (1) 
rbdock ($Id: //depot/dev/client3/rdock/2013.1/src/exe/rbdock.cxx#4 $)

>  <Rbt.Library>  (1) 
libRbt.so (2013.1, Build901 2013/11/27)

>  <Rbt.Parameter_File>  (1) 
/python_libraries/phenodiscovery/docking/templates/RDOCK_TETHER.conf

>  <Rbt.Receptor>  (1) 
/data/out/rdock-opt/grid/rdock-grid.prm

>  <SCORE>  (1) 
-1.17298

>  <SCORE.INTER>  (1) 
0.429456

>  <SCORE.INTER.CONST>  (1) 
1

>  <SCORE.INTER.POLAR>  (1) 
0

>  <SCORE.INTER.REPUL>  (1) 
0.0055476

>  <SCORE.INTER.ROT>  (1) 
2

>  <SCORE.INTER.VDW>  (1) 
-6.99828

>  <SCORE.INTER.norm>  (1) 
0.0286304

>  <SCORE.INTRA>  (1) 
-1.60244

>  <SCORE.INTRA.DIHEDRAL>  (1) 
-4.2519

>  <SCORE.INTRA.DIHEDRAL.0>  (1) 
5.4068

>  <SCORE.INTRA.POLAR>  (1) 
0

>  <SCORE.INTRA.POLAR.0>  (1) 
0

>  <SCORE.INTRA.REPUL>  (1) 
0

>  <SCORE.INTRA.REPUL.0>  (1) 
0

>  <SCORE.INTRA.VDW>  (1) 
0.523515

>  <SCORE.INTRA.VDW.0>  (1) 
-0.962157

>  <SCORE.INTRA.norm>  (1) 
-0.106829

>  <SCORE.RESTR>  (1) 
0

>  <SCORE.RESTR.CAVITY>  (1) 
0

>  <SCORE.RESTR.norm>  (1) 
0

>  <SCORE.SYSTEM>  (1) 
0

>  <SCORE.SYSTEM.CONST>  (1) 
0

>  <SCORE.SYSTEM.DIHEDRAL>  (1) 
0

>  <SCORE.SYSTEM.norm>  (1) 
0

>  <SCORE.heavy>  (1) 
15

>  <SCORE.norm>  (1) 
-0.0781987

>  <TETHERED ATOMS>  (1) 
2,3,4,7,9,10,11,5,6,15

>  <skeledock_score>  (1) 
36

$$$$
