F650
     RDKit          3D

 23 24  0  0  0  0  0  0  0  0999 V2000
  -20.6647   11.9616   26.3852 O   0  0  0  0  0  0  0  0  0  0  0  0
  -20.3653   13.1162   26.7951 C   0  0  0  0  0  0  0  0  0  0  0  0
  -19.2742   13.8134   26.1624 N   0  0  0  0  0  0  0  0  0  0  0  0
  -18.7976   13.4334   24.8440 C   0  0  0  0  0  0  0  0  0  0  0  0
  -17.9296   14.5873   24.3689 C   0  0  0  0  0  0  0  0  0  0  0  0
  -17.5574   15.3611   25.6257 C   0  0  0  0  0  0  0  0  0  0  0  0
  -18.6268   15.0169   26.6539 C   0  0  0  0  0  0  0  0  0  0  0  0
  -21.2271   13.7224   27.8335 C   0  0  0  0  0  0  0  0  0  0  0  0
  -21.0608   13.5653   29.1992 C   0  0  0  0  0  0  0  0  0  0  0  0
  -22.0220   14.2471   29.8493 N   0  0  0  0  0  0  0  0  0  0  0  0
  -22.7813   14.8365   28.9407 N   0  0  0  0  0  0  0  0  0  0  0  0
  -22.3294   14.5468   27.7081 C   0  0  0  0  0  0  0  0  0  0  0  0
  -19.6509   13.2816   24.1471 H   0  0  0  0  0  0  0  0  0  0  0  0
  -18.2008   12.4986   24.9196 H   0  0  0  0  0  0  0  0  0  0  0  0
  -17.0261   14.2227   23.8336 H   0  0  0  0  0  0  0  0  0  0  0  0
  -18.5185   15.2436   23.6907 H   0  0  0  0  0  0  0  0  0  0  0  0
  -17.5174   16.4549   25.4308 H   0  0  0  0  0  0  0  0  0  0  0  0
  -16.5637   15.0186   25.9903 H   0  0  0  0  0  0  0  0  0  0  0  0
  -19.3672   15.8433   26.7189 H   0  0  0  0  0  0  0  0  0  0  0  0
  -18.1552   14.8260   27.6415 H   0  0  0  0  0  0  0  0  0  0  0  0
  -20.2931   12.9818   29.6902 H   0  0  0  0  0  0  0  0  0  0  0  0
  -23.6001   15.4435   29.1657 H   0  0  0  0  0  0  0  0  0  0  0  0
  -22.7657   14.9427   26.8045 H   0  0  0  0  0  0  0  0  0  0  0  0
  1  2  2  0
  2  3  1  0
  3  4  1  0
  4  5  1  0
  5  6  1  0
  6  7  1  0
  2  8  1  0
  8  9  1  0
  9 10  2  0
 10 11  1  0
 11 12  1  0
  7  3  1  0
  8 12  2  0
  4 13  1  0
  4 14  1  0
  5 15  1  0
  5 16  1  0
  6 17  1  0
  6 18  1  0
  7 19  1  0
  7 20  1  0
  9 21  1  0
 11 22  1  0
 12 23  1  0
M  END
>  <CHROM.1>  (1) 
88.20932897,0.51689694,-0.60369532,-2.30749369

>  <Name>  (1) 
F650

>  <RI>  (1) 
2.3818e+07

>  <Rbt.Current_Directory>  (1) 
/data/out

>  <Rbt.Executable>  (1) 
rbdock ($Id: //depot/dev/client3/rdock/2013.1/src/exe/rbdock.cxx#4 $)

>  <Rbt.Library>  (1) 
libRbt.so (2013.1, Build901 2013/11/27)

>  <Rbt.Parameter_File>  (1) 
/python_libraries/phenodiscovery/docking/templates/RDOCK_TETHER.conf

>  <Rbt.Receptor>  (1) 
/data/out/rdock-opt/grid/rdock-grid.prm

>  <SCORE>  (1) 
1.38675

>  <SCORE.INTER>  (1) 
-1.65348

>  <SCORE.INTER.CONST>  (1) 
1

>  <SCORE.INTER.POLAR>  (1) 
-0.788421

>  <SCORE.INTER.REPUL>  (1) 
0

>  <SCORE.INTER.ROT>  (1) 
1

>  <SCORE.INTER.VDW>  (1) 
-5.37285

>  <SCORE.INTER.norm>  (1) 
-0.13779

>  <SCORE.INTRA>  (1) 
3.04024

>  <SCORE.INTRA.DIHEDRAL>  (1) 
8.88462

>  <SCORE.INTRA.DIHEDRAL.0>  (1) 
2.41612

>  <SCORE.INTRA.POLAR>  (1) 
0

>  <SCORE.INTRA.POLAR.0>  (1) 
0

>  <SCORE.INTRA.REPUL>  (1) 
0

>  <SCORE.INTRA.REPUL.0>  (1) 
0

>  <SCORE.INTRA.VDW>  (1) 
-1.40208

>  <SCORE.INTRA.VDW.0>  (1) 
0.16131

>  <SCORE.INTRA.norm>  (1) 
0.253353

>  <SCORE.RESTR>  (1) 
0

>  <SCORE.RESTR.CAVITY>  (1) 
0

>  <SCORE.RESTR.norm>  (1) 
0

>  <SCORE.SYSTEM>  (1) 
0

>  <SCORE.SYSTEM.CONST>  (1) 
0

>  <SCORE.SYSTEM.DIHEDRAL>  (1) 
0

>  <SCORE.SYSTEM.norm>  (1) 
0

>  <SCORE.heavy>  (1) 
12

>  <SCORE.norm>  (1) 
0.115563

>  <TETHERED ATOMS>  (1) 
2,8,12,11,3,7,6,5,4,10,9

>  <skeledock_score>  (1) 
47

$$$$
