F603
     RDKit          3D

 24 25  0  0  0  0  0  0  0  0999 V2000
  -18.3679   16.2342   25.7656 C   0  0  0  0  0  0  0  0  0  0  0  0
  -18.7264   14.8264   24.7366 S   0  0  0  0  0  0  0  0  0  0  0  0
  -17.6002   14.6118   23.7644 O   0  0  0  0  0  0  0  0  0  0  0  0
  -19.9940   15.0895   23.9738 O   0  0  0  0  0  0  0  0  0  0  0  0
  -18.9469   13.3721   25.7472 C   0  0  0  0  0  0  0  0  0  0  0  0
  -19.2573   13.7357   27.1662 C   0  0  0  0  0  0  0  0  0  0  0  0
  -18.3204   13.7486   28.1526 N   0  0  0  0  0  0  0  0  0  0  0  0
  -19.0157   14.1829   29.2183 C   0  0  0  0  0  0  0  0  0  0  0  0
  -18.5432   14.4129   30.5085 C   0  0  0  0  0  0  0  0  0  0  0  0
  -19.4479   14.9350   31.4524 C   0  0  0  0  0  0  0  0  0  0  0  0
  -20.7846   15.2126   31.0843 C   0  0  0  0  0  0  0  0  0  0  0  0
  -21.2303   14.9593   29.7730 C   0  0  0  0  0  0  0  0  0  0  0  0
  -20.3086   14.4351   28.8704 C   0  0  0  0  0  0  0  0  0  0  0  0
  -20.4831   14.1486   27.5748 N   0  0  0  0  0  0  0  0  0  0  0  0
  -18.3808   17.1559   25.1480 H   0  0  0  0  0  0  0  0  0  0  0  0
  -17.3657   16.1221   26.2262 H   0  0  0  0  0  0  0  0  0  0  0  0
  -19.1345   16.3172   26.5634 H   0  0  0  0  0  0  0  0  0  0  0  0
  -19.7823   12.7690   25.3345 H   0  0  0  0  0  0  0  0  0  0  0  0
  -18.0209   12.7606   25.7070 H   0  0  0  0  0  0  0  0  0  0  0  0
  -17.5130   14.2124   30.7726 H   0  0  0  0  0  0  0  0  0  0  0  0
  -19.1159   15.1326   32.4634 H   0  0  0  0  0  0  0  0  0  0  0  0
  -21.4704   15.6202   31.8154 H   0  0  0  0  0  0  0  0  0  0  0  0
  -22.2497   15.1698   29.4771 H   0  0  0  0  0  0  0  0  0  0  0  0
  -21.3517   14.2552   27.0047 H   0  0  0  0  0  0  0  0  0  0  0  0
  1  2  1  0
  2  3  2  0
  2  4  2  0
  2  5  1  0
  5  6  1  0
  6  7  2  0
  7  8  1  0
  8  9  2  0
  9 10  1  0
 10 11  2  0
 11 12  1  0
 12 13  2  0
 13 14  1  0
 14  6  1  0
  8 13  1  0
  1 15  1  0
  1 16  1  0
  1 17  1  0
  5 18  1  0
  5 19  1  0
  9 20  1  0
 10 21  1  0
 11 22  1  0
 12 23  1  0
 14 24  1  0
M  END
>  <CHROM.1>  (1) 
19.93873427,-98.74311031,-1.33783878,0.28719494,1.49504518

>  <Name>  (1) 
F603

>  <RI>  (1) 
3.59707e+07

>  <Rbt.Current_Directory>  (1) 
/data/out

>  <Rbt.Executable>  (1) 
rbdock ($Id: //depot/dev/client3/rdock/2013.1/src/exe/rbdock.cxx#4 $)

>  <Rbt.Library>  (1) 
libRbt.so (2013.1, Build901 2013/11/27)

>  <Rbt.Parameter_File>  (1) 
/python_libraries/phenodiscovery/docking/templates/RDOCK_TETHER.conf

>  <Rbt.Receptor>  (1) 
/data/out/rdock-opt/grid/rdock-grid.prm

>  <SCORE>  (1) 
1.38571

>  <SCORE.INTER>  (1) 
0.400569

>  <SCORE.INTER.CONST>  (1) 
1

>  <SCORE.INTER.POLAR>  (1) 
0

>  <SCORE.INTER.REPUL>  (1) 
0

>  <SCORE.INTER.ROT>  (1) 
2

>  <SCORE.INTER.VDW>  (1) 
-6.99943

>  <SCORE.INTER.norm>  (1) 
0.0286121

>  <SCORE.INTRA>  (1) 
0.985142

>  <SCORE.INTRA.DIHEDRAL>  (1) 
2.04312

>  <SCORE.INTRA.DIHEDRAL.0>  (1) 
1.91619

>  <SCORE.INTRA.POLAR>  (1) 
0

>  <SCORE.INTRA.POLAR.0>  (1) 
0

>  <SCORE.INTRA.REPUL>  (1) 
0

>  <SCORE.INTRA.REPUL.0>  (1) 
0

>  <SCORE.INTRA.VDW>  (1) 
-0.0364175

>  <SCORE.INTRA.VDW.0>  (1) 
-1.86936

>  <SCORE.INTRA.norm>  (1) 
0.0703673

>  <SCORE.RESTR>  (1) 
0

>  <SCORE.RESTR.CAVITY>  (1) 
0

>  <SCORE.RESTR.norm>  (1) 
0

>  <SCORE.SYSTEM>  (1) 
0

>  <SCORE.SYSTEM.CONST>  (1) 
0

>  <SCORE.SYSTEM.DIHEDRAL>  (1) 
0

>  <SCORE.SYSTEM.norm>  (1) 
0

>  <SCORE.heavy>  (1) 
14

>  <SCORE.norm>  (1) 
0.0989793

>  <TETHERED ATOMS>  (1) 
1,2,5,6,14,13,12,8,9,10,11

>  <skeledock_score>  (1) 
50

$$$$
