F616
     RDKit          3D

 26 26  0  0  0  0  0  0  0  0999 V2000
  -24.5508   14.5536   28.8073 C   0  0  0  0  0  0  0  0  0  0  0  0
  -23.2649   14.5413   30.0394 S   0  0  0  0  0  0  0  0  0  0  0  0
  -23.7831   15.2045   31.2839 O   0  0  0  0  0  0  0  0  0  0  0  0
  -22.8928   13.1209   30.3624 O   0  0  0  0  0  0  0  0  0  0  0  0
  -21.8699   15.4136   29.4785 N   0  0  0  0  0  0  0  0  0  0  0  0
  -21.2760   14.7240   28.3319 C   0  0  0  0  0  0  0  0  0  0  0  0
  -19.8794   15.2872   28.0493 C   0  0  0  0  0  0  0  0  0  0  0  0
  -19.2616   14.6325   26.8402 C   0  0  0  0  0  0  0  0  0  0  0  0
  -19.3342   15.2577   25.5830 C   0  0  0  0  0  0  0  0  0  0  0  0
  -18.7587   14.6551   24.4607 C   0  0  0  0  0  0  0  0  0  0  0  0
  -18.0968   13.4309   24.5849 C   0  0  0  0  0  0  0  0  0  0  0  0
  -17.5361   12.8496   23.4960 F   0  0  0  0  0  0  0  0  0  0  0  0
  -18.0100   12.8073   25.8329 C   0  0  0  0  0  0  0  0  0  0  0  0
  -18.5895   13.4037   26.9575 C   0  0  0  0  0  0  0  0  0  0  0  0
  -25.4828   14.1364   29.2411 H   0  0  0  0  0  0  0  0  0  0  0  0
  -24.7354   15.5952   28.4731 H   0  0  0  0  0  0  0  0  0  0  0  0
  -24.2471   13.9346   27.9384 H   0  0  0  0  0  0  0  0  0  0  0  0
  -22.2101   16.3502   29.1592 H   0  0  0  0  0  0  0  0  0  0  0  0
  -21.9195   14.8540   27.4343 H   0  0  0  0  0  0  0  0  0  0  0  0
  -21.1806   13.6381   28.5534 H   0  0  0  0  0  0  0  0  0  0  0  0
  -19.2420   15.1307   28.9473 H   0  0  0  0  0  0  0  0  0  0  0  0
  -19.9440   16.3830   27.8724 H   0  0  0  0  0  0  0  0  0  0  0  0
  -19.8317   16.2131   25.4726 H   0  0  0  0  0  0  0  0  0  0  0  0
  -18.8217   15.1413   23.4957 H   0  0  0  0  0  0  0  0  0  0  0  0
  -17.4953   11.8600   25.9299 H   0  0  0  0  0  0  0  0  0  0  0  0
  -18.5154   12.9057   27.9163 H   0  0  0  0  0  0  0  0  0  0  0  0
  1  2  1  0
  2  3  2  0
  2  4  2  0
  2  5  1  0
  5  6  1  0
  6  7  1  0
  7  8  1  0
  8  9  2  0
  9 10  1  0
 10 11  2  0
 11 12  1  0
 11 13  1  0
 13 14  2  0
  8 14  1  0
  1 15  1  0
  1 16  1  0
  1 17  1  0
  5 18  1  0
  6 19  1  0
  6 20  1  0
  7 21  1  0
  7 22  1  0
  9 23  1  0
 10 24  1  0
 13 25  1  0
 14 26  1  0
M  END
>  <CHROM.1>  (1) 
-65.38136819,-166.47481640,-177.85334134,97.08554488,-2.47164202,0.32041865
-1.37699462

>  <Name>  (1) 
F616

>  <RI>  (1) 
2.0062e+07

>  <Rbt.Current_Directory>  (1) 
/data/out

>  <Rbt.Executable>  (1) 
rbdock ($Id: //depot/dev/client3/rdock/2013.1/src/exe/rbdock.cxx#4 $)

>  <Rbt.Library>  (1) 
libRbt.so (2013.1, Build901 2013/11/27)

>  <Rbt.Parameter_File>  (1) 
/python_libraries/phenodiscovery/docking/templates/RDOCK_TETHER.conf

>  <Rbt.Receptor>  (1) 
/data/out/rdock-opt/grid/rdock-grid.prm

>  <SCORE>  (1) 
-1.77011

>  <SCORE.INTER>  (1) 
-1.59589

>  <SCORE.INTER.CONST>  (1) 
1

>  <SCORE.INTER.POLAR>  (1) 
-0.489898

>  <SCORE.INTER.REPUL>  (1) 
0

>  <SCORE.INTER.ROT>  (1) 
4

>  <SCORE.INTER.VDW>  (1) 
-9.33024

>  <SCORE.INTER.norm>  (1) 
-0.113992

>  <SCORE.INTRA>  (1) 
-0.174214

>  <SCORE.INTRA.DIHEDRAL>  (1) 
0.248362

>  <SCORE.INTRA.DIHEDRAL.0>  (1) 
0.891049

>  <SCORE.INTRA.POLAR>  (1) 
0

>  <SCORE.INTRA.POLAR.0>  (1) 
0

>  <SCORE.INTRA.REPUL>  (1) 
0

>  <SCORE.INTRA.REPUL.0>  (1) 
0

>  <SCORE.INTRA.VDW>  (1) 
-0.298396

>  <SCORE.INTRA.VDW.0>  (1) 
-0.60521

>  <SCORE.INTRA.norm>  (1) 
-0.0124439

>  <SCORE.RESTR>  (1) 
0

>  <SCORE.RESTR.CAVITY>  (1) 
0

>  <SCORE.RESTR.norm>  (1) 
0

>  <SCORE.SYSTEM>  (1) 
0

>  <SCORE.SYSTEM.CONST>  (1) 
0

>  <SCORE.SYSTEM.DIHEDRAL>  (1) 
0

>  <SCORE.SYSTEM.norm>  (1) 
0

>  <SCORE.heavy>  (1) 
14

>  <SCORE.norm>  (1) 
-0.126436

>  <TETHERED ATOMS>  (1) 
5,6,7,8,9,14,10,11,13,1,2

>  <skeledock_score>  (1) 
52

$$$$
