F579
     RDKit          3D

 29 31  0  0  0  0  0  0  0  0999 V2000
  -20.5629   17.8572   33.7329 C   0  0  0  0  0  0  0  0  0  0  0  0
  -21.3534   17.6657   32.5642 O   0  0  0  0  0  0  0  0  0  0  0  0
  -20.9144   16.9923   31.4149 C   0  0  0  0  0  0  0  0  0  0  0  0
  -19.8072   17.5177   30.7143 C   0  0  0  0  0  0  0  0  0  0  0  0
  -19.3238   16.8909   29.5543 C   0  0  0  0  0  0  0  0  0  0  0  0
  -19.9518   15.7301   29.1073 C   0  0  0  0  0  0  0  0  0  0  0  0
  -19.5631   15.0193   28.0182 N   0  0  0  0  0  0  0  0  0  0  0  0
  -20.3479   13.9268   27.8504 C   0  0  0  0  0  0  0  0  0  0  0  0
  -20.1773   12.9600   26.8040 N   0  0  0  0  0  0  0  0  0  0  0  0
  -19.1485   12.9726   25.8001 C   0  0  0  0  0  0  0  0  0  0  0  0
  -19.1385   12.0583   24.9332 O   0  0  0  0  0  0  0  0  0  0  0  0
  -18.1088   14.0563   25.7248 C   0  0  0  0  0  0  0  0  0  0  0  0
  -18.5441   15.3349   25.0188 C   0  0  0  0  0  0  0  0  0  0  0  0
  -17.6185   14.3596   24.3158 C   0  0  0  0  0  0  0  0  0  0  0  0
  -21.5521   13.8084   29.0357 S   0  0  0  0  0  0  0  0  0  0  0  0
  -21.0354   15.2120   29.7964 C   0  0  0  0  0  0  0  0  0  0  0  0
  -21.5412   15.8149   30.9447 C   0  0  0  0  0  0  0  0  0  0  0  0
  -20.2776   16.8753   34.1659 H   0  0  0  0  0  0  0  0  0  0  0  0
  -21.1559   18.4183   34.4839 H   0  0  0  0  0  0  0  0  0  0  0  0
  -19.6533   18.4446   33.4863 H   0  0  0  0  0  0  0  0  0  0  0  0
  -19.3235   18.4178   31.0720 H   0  0  0  0  0  0  0  0  0  0  0  0
  -18.4729   17.2987   29.0235 H   0  0  0  0  0  0  0  0  0  0  0  0
  -20.8465   12.1576   26.7897 H   0  0  0  0  0  0  0  0  0  0  0  0
  -17.3665   14.1825   26.5411 H   0  0  0  0  0  0  0  0  0  0  0  0
  -19.5706   15.3508   24.5935 H   0  0  0  0  0  0  0  0  0  0  0  0
  -18.0340   16.2559   25.3716 H   0  0  0  0  0  0  0  0  0  0  0  0
  -16.5614   14.6955   24.2621 H   0  0  0  0  0  0  0  0  0  0  0  0
  -18.1031   13.7831   23.4982 H   0  0  0  0  0  0  0  0  0  0  0  0
  -22.3881   15.3752   31.4534 H   0  0  0  0  0  0  0  0  0  0  0  0
  1  2  1  0
  2  3  1  0
  3  4  2  0
  4  5  1  0
  5  6  2  0
  6  7  1  0
  7  8  2  0
  8  9  1  0
  9 10  1  0
 10 11  2  0
 10 12  1  0
 12 13  1  0
 13 14  1  0
  8 15  1  0
 15 16  1  0
 16 17  2  0
  3 17  1  0
  6 16  1  0
 14 12  1  0
  1 18  1  0
  1 19  1  0
  1 20  1  0
  4 21  1  0
  5 22  1  0
  9 23  1  0
 12 24  1  0
 13 25  1  0
 13 26  1  0
 14 27  1  0
 14 28  1  0
 17 29  1  0
M  END
>  <CHROM.1>  (1) 
-61.70404626,1.52562880,-82.13129068,1.68107194,0.63558850,0.74754442

>  <Name>  (1) 
F579

>  <RI>  (1) 
2.96793e+07

>  <Rbt.Current_Directory>  (1) 
/data/out

>  <Rbt.Executable>  (1) 
rbdock ($Id: //depot/dev/client3/rdock/2013.1/src/exe/rbdock.cxx#4 $)

>  <Rbt.Library>  (1) 
libRbt.so (2013.1, Build901 2013/11/27)

>  <Rbt.Parameter_File>  (1) 
/python_libraries/phenodiscovery/docking/templates/RDOCK_TETHER.conf

>  <Rbt.Receptor>  (1) 
/data/out/rdock-opt/grid/rdock-grid.prm

>  <SCORE>  (1) 
3.19572

>  <SCORE.INTER>  (1) 
1.63953

>  <SCORE.INTER.CONST>  (1) 
1

>  <SCORE.INTER.POLAR>  (1) 
0

>  <SCORE.INTER.REPUL>  (1) 
0

>  <SCORE.INTER.ROT>  (1) 
3

>  <SCORE.INTER.VDW>  (1) 
-6.76047

>  <SCORE.INTER.norm>  (1) 
0.0964428

>  <SCORE.INTRA>  (1) 
1.55619

>  <SCORE.INTRA.DIHEDRAL>  (1) 
3.28752

>  <SCORE.INTRA.DIHEDRAL.0>  (1) 
2.39749

>  <SCORE.INTRA.POLAR>  (1) 
0

>  <SCORE.INTRA.POLAR.0>  (1) 
0

>  <SCORE.INTRA.REPUL>  (1) 
0

>  <SCORE.INTRA.REPUL.0>  (1) 
0

>  <SCORE.INTRA.VDW>  (1) 
-0.0875687

>  <SCORE.INTRA.VDW.0>  (1) 
-1.90948

>  <SCORE.INTRA.norm>  (1) 
0.0915405

>  <SCORE.RESTR>  (1) 
0

>  <SCORE.RESTR.CAVITY>  (1) 
0

>  <SCORE.RESTR.norm>  (1) 
0

>  <SCORE.SYSTEM>  (1) 
0

>  <SCORE.SYSTEM.CONST>  (1) 
0

>  <SCORE.SYSTEM.DIHEDRAL>  (1) 
0

>  <SCORE.SYSTEM.norm>  (1) 
0

>  <SCORE.heavy>  (1) 
17

>  <SCORE.norm>  (1) 
0.187983

>  <TETHERED ATOMS>  (1) 
8,9,10,11,12,4,5,6

>  <skeledock_score>  (1) 
36

$$$$
