F14
     RDKit          3D

 19 19  0  0  0  0  0  0  0  0999 V2000
  -16.0178   16.3808   26.1817 Br  0  0  0  0  0  0  0  0  0  0  0  0
  -17.5696   15.2747   26.2337 C   0  0  0  0  0  0  0  0  0  0  0  0
  -18.7767   15.5596   26.8300 C   0  0  0  0  0  0  0  0  0  0  0  0
  -19.5959   14.5110   26.6243 N   0  0  0  0  0  0  0  0  0  0  0  0
  -20.9934   14.4218   27.0350 C   0  0  0  0  0  0  0  0  0  0  0  0
  -21.2045   13.1967   27.9257 C   0  0  0  0  0  0  0  0  0  0  0  0
  -22.5416   13.1526   28.3878 O   0  0  0  0  0  0  0  0  0  0  0  0
  -22.7105   12.0951   29.3060 C   0  0  0  0  0  0  0  0  0  0  0  0
  -18.9748   13.5814   25.9139 N   0  0  0  0  0  0  0  0  0  0  0  0
  -17.7258   14.0251   25.6688 C   0  0  0  0  0  0  0  0  0  0  0  0
  -19.0415   16.4644   27.3618 H   0  0  0  0  0  0  0  0  0  0  0  0
  -21.2740   15.3442   27.5873 H   0  0  0  0  0  0  0  0  0  0  0  0
  -21.6455   14.3483   26.1372 H   0  0  0  0  0  0  0  0  0  0  0  0
  -21.0265   12.2855   27.3157 H   0  0  0  0  0  0  0  0  0  0  0  0
  -20.4454   13.1803   28.7446 H   0  0  0  0  0  0  0  0  0  0  0  0
  -22.0031   12.1780   30.1606 H   0  0  0  0  0  0  0  0  0  0  0  0
  -22.5941   11.1114   28.8000 H   0  0  0  0  0  0  0  0  0  0  0  0
  -23.7402   12.1431   29.7160 H   0  0  0  0  0  0  0  0  0  0  0  0
  -16.9815   13.4772   25.1069 H   0  0  0  0  0  0  0  0  0  0  0  0
  1  2  1  0
  2  3  2  0
  3  4  1  0
  4  5  1  0
  5  6  1  0
  6  7  1  0
  7  8  1  0
  4  9  1  0
  9 10  2  0
 10  2  1  0
  3 11  1  0
  5 12  1  0
  5 13  1  0
  6 14  1  0
  6 15  1  0
  8 16  1  0
  8 17  1  0
  8 18  1  0
 10 19  1  0
M  END
>  <CHROM.1>  (1) 
-123.22166553,176.60555860,-174.65406537,-0.06894748,0.31305635,0.46256071

>  <Name>  (1) 
F14

>  <RI>  (1) 
3.62602e+07

>  <Rbt.Current_Directory>  (1) 
/data/out

>  <Rbt.Executable>  (1) 
rbdock ($Id: //depot/dev/client3/rdock/2013.1/src/exe/rbdock.cxx#4 $)

>  <Rbt.Library>  (1) 
libRbt.so (2013.1, Build901 2013/11/27)

>  <Rbt.Parameter_File>  (1) 
/python_libraries/phenodiscovery/docking/templates/RDOCK_TETHER.conf

>  <Rbt.Receptor>  (1) 
/data/out/rdock-opt/grid/rdock-grid.prm

>  <SCORE>  (1) 
-0.258604

>  <SCORE.INTER>  (1) 
1.77199

>  <SCORE.INTER.CONST>  (1) 
1

>  <SCORE.INTER.POLAR>  (1) 
0

>  <SCORE.INTER.REPUL>  (1) 
0

>  <SCORE.INTER.ROT>  (1) 
3

>  <SCORE.INTER.VDW>  (1) 
-6.62801

>  <SCORE.INTER.norm>  (1) 
0.177199

>  <SCORE.INTRA>  (1) 
-2.0306

>  <SCORE.INTRA.DIHEDRAL>  (1) 
-4.35244

>  <SCORE.INTRA.DIHEDRAL.0>  (1) 
7.22203

>  <SCORE.INTRA.POLAR>  (1) 
0

>  <SCORE.INTRA.POLAR.0>  (1) 
0

>  <SCORE.INTRA.REPUL>  (1) 
0

>  <SCORE.INTRA.REPUL.0>  (1) 
0

>  <SCORE.INTRA.VDW>  (1) 
0.145623

>  <SCORE.INTRA.VDW.0>  (1) 
0.507566

>  <SCORE.INTRA.norm>  (1) 
-0.20306

>  <SCORE.RESTR>  (1) 
0

>  <SCORE.RESTR.CAVITY>  (1) 
0

>  <SCORE.RESTR.norm>  (1) 
0

>  <SCORE.SYSTEM>  (1) 
0

>  <SCORE.SYSTEM.CONST>  (1) 
0

>  <SCORE.SYSTEM.DIHEDRAL>  (1) 
0

>  <SCORE.SYSTEM.norm>  (1) 
0

>  <SCORE.heavy>  (1) 
10

>  <SCORE.norm>  (1) 
-0.0258604

>  <TETHERED ATOMS>  (1) 
2,3,4,5,10,9

>  <skeledock_score>  (1) 
31

$$$$
