F421
     RDKit          3D

 19 19  0  0  0  0  0  0  0  0999 V2000
  -18.2708   16.1989   26.3344 C   0  0  0  0  0  0  0  0  0  0  0  0
  -19.4353   15.3348   26.1257 N   0  0  0  0  0  0  0  0  0  0  0  0
  -19.5861   14.6453   24.8439 C   0  0  0  0  0  0  0  0  0  0  0  0
  -20.4849   15.2325   27.1067 C   0  0  0  0  0  0  0  0  0  0  0  0
  -21.6822   15.1308   26.7243 O   0  0  0  0  0  0  0  0  0  0  0  0
  -20.2013   15.2294   28.5553 C   0  0  0  0  0  0  0  0  0  0  0  0
  -21.0447   15.5760   29.5967 C   0  0  0  0  0  0  0  0  0  0  0  0
  -20.3764   15.4638   30.7615 N   0  0  0  0  0  0  0  0  0  0  0  0
  -19.1446   15.0655   30.4856 N   0  0  0  0  0  0  0  0  0  0  0  0
  -18.9996   14.9219   29.1572 C   0  0  0  0  0  0  0  0  0  0  0  0
  -17.3501   15.5805   26.3825 H   0  0  0  0  0  0  0  0  0  0  0  0
  -18.1824   16.9173   25.4921 H   0  0  0  0  0  0  0  0  0  0  0  0
  -18.3639   16.7909   27.2686 H   0  0  0  0  0  0  0  0  0  0  0  0
  -20.4768   15.0350   24.3072 H   0  0  0  0  0  0  0  0  0  0  0  0
  -19.7097   13.5557   25.0183 H   0  0  0  0  0  0  0  0  0  0  0  0
  -18.6928   14.7977   24.2004 H   0  0  0  0  0  0  0  0  0  0  0  0
  -22.0719   15.9049   29.5161 H   0  0  0  0  0  0  0  0  0  0  0  0
  -18.4063   14.9004   31.2046 H   0  0  0  0  0  0  0  0  0  0  0  0
  -18.0854   14.6135   28.6666 H   0  0  0  0  0  0  0  0  0  0  0  0
  1  2  1  0
  2  3  1  0
  2  4  1  0
  4  5  2  0
  4  6  1  0
  6  7  1  0
  7  8  2  0
  8  9  1  0
  9 10  1  0
  6 10  2  0
  1 11  1  0
  1 12  1  0
  1 13  1  0
  3 14  1  0
  3 15  1  0
  3 16  1  0
  7 17  1  0
  9 18  1  0
 10 19  1  0
M  END
>  <CHROM.1>  (1) 
156.55399705,-1.50706715,-0.26671775,1.51977369

>  <Name>  (1) 
F421

>  <RI>  (1) 
2.7186e+07

>  <Rbt.Current_Directory>  (1) 
/data/out

>  <Rbt.Executable>  (1) 
rbdock ($Id: //depot/dev/client3/rdock/2013.1/src/exe/rbdock.cxx#4 $)

>  <Rbt.Library>  (1) 
libRbt.so (2013.1, Build901 2013/11/27)

>  <Rbt.Parameter_File>  (1) 
/python_libraries/phenodiscovery/docking/templates/RDOCK_TETHER.conf

>  <Rbt.Receptor>  (1) 
/data/out/rdock-opt/grid/rdock-grid.prm

>  <SCORE>  (1) 
1.63088

>  <SCORE.INTER>  (1) 
1.42709

>  <SCORE.INTER.CONST>  (1) 
1

>  <SCORE.INTER.POLAR>  (1) 
0

>  <SCORE.INTER.REPUL>  (1) 
0

>  <SCORE.INTER.ROT>  (1) 
1

>  <SCORE.INTER.VDW>  (1) 
-4.97291

>  <SCORE.INTER.norm>  (1) 
0.142709

>  <SCORE.INTRA>  (1) 
0.203788

>  <SCORE.INTRA.DIHEDRAL>  (1) 
0.291549

>  <SCORE.INTRA.DIHEDRAL.0>  (1) 
1.36935

>  <SCORE.INTRA.POLAR>  (1) 
0

>  <SCORE.INTRA.POLAR.0>  (1) 
0

>  <SCORE.INTRA.REPUL>  (1) 
0

>  <SCORE.INTRA.REPUL.0>  (1) 
0

>  <SCORE.INTRA.VDW>  (1) 
0.0580132

>  <SCORE.INTRA.VDW.0>  (1) 
-0.883194

>  <SCORE.INTRA.norm>  (1) 
0.0203788

>  <SCORE.RESTR>  (1) 
0

>  <SCORE.RESTR.CAVITY>  (1) 
0

>  <SCORE.RESTR.norm>  (1) 
0

>  <SCORE.SYSTEM>  (1) 
0

>  <SCORE.SYSTEM.CONST>  (1) 
0

>  <SCORE.SYSTEM.DIHEDRAL>  (1) 
0

>  <SCORE.SYSTEM.norm>  (1) 
0

>  <SCORE.heavy>  (1) 
10

>  <SCORE.norm>  (1) 
0.163088

>  <TETHERED ATOMS>  (1) 
2,4,6,10,3,9,8,7

>  <skeledock_score>  (1) 
41

$$$$
