F95
     RDKit          3D

 27 27  0  0  0  0  0  0  0  0999 V2000
  -18.4850   13.9404   24.4350 C   0  0  0  0  0  0  0  0  0  0  0  0
  -18.6723   13.8034   25.9095 C   0  0  0  0  0  0  0  0  0  0  0  0
  -17.7404   14.1362   26.6895 O   0  0  0  0  0  0  0  0  0  0  0  0
  -19.9046   13.2924   26.4307 N   0  0  0  0  0  0  0  0  0  0  0  0
  -20.0278   12.8924   27.8327 C   0  0  0  0  0  0  0  0  0  0  0  0
  -20.0030   14.0884   28.7507 C   0  0  0  0  0  0  0  0  0  0  0  0
  -19.1326   14.1233   29.8519 C   0  0  0  0  0  0  0  0  0  0  0  0
  -19.1457   15.2130   30.7279 C   0  0  0  0  0  0  0  0  0  0  0  0
  -20.0194   16.2856   30.5081 C   0  0  0  0  0  0  0  0  0  0  0  0
  -20.8964   16.2501   29.4169 C   0  0  0  0  0  0  0  0  0  0  0  0
  -20.8948   15.1550   28.5485 C   0  0  0  0  0  0  0  0  0  0  0  0
  -20.0415   17.6522   31.6184 S   0  0  0  0  0  0  0  0  0  0  0  0
  -21.3705   18.3500   31.5399 O   0  0  0  0  0  0  0  0  0  0  0  0
  -19.8353   17.1676   33.0261 O   0  0  0  0  0  0  0  0  0  0  0  0
  -18.7831   18.7607   31.2001 N   0  0  0  0  0  0  0  0  0  0  0  0
  -19.2521   14.6303   24.0258 H   0  0  0  0  0  0  0  0  0  0  0  0
  -18.5937   12.9461   23.9537 H   0  0  0  0  0  0  0  0  0  0  0  0
  -17.4766   14.3447   24.2035 H   0  0  0  0  0  0  0  0  0  0  0  0
  -20.7057   13.1614   25.7714 H   0  0  0  0  0  0  0  0  0  0  0  0
  -20.9937   12.3615   27.9761 H   0  0  0  0  0  0  0  0  0  0  0  0
  -19.2075   12.1848   28.0826 H   0  0  0  0  0  0  0  0  0  0  0  0
  -18.4499   13.3040   30.0401 H   0  0  0  0  0  0  0  0  0  0  0  0
  -18.4740   15.2190   31.5768 H   0  0  0  0  0  0  0  0  0  0  0  0
  -21.5908   17.0626   29.2453 H   0  0  0  0  0  0  0  0  0  0  0  0
  -21.5922   15.1357   27.7201 H   0  0  0  0  0  0  0  0  0  0  0  0
  -18.4794   19.2252   32.0853 H   0  0  0  0  0  0  0  0  0  0  0  0
  -17.9735   18.1910   30.8662 H   0  0  0  0  0  0  0  0  0  0  0  0
  1  2  1  0
  2  3  2  0
  2  4  1  0
  4  5  1  0
  5  6  1  0
  6  7  2  0
  7  8  1  0
  8  9  2  0
  9 10  1  0
 10 11  2  0
  9 12  1  0
 12 13  2  0
 12 14  2  0
 12 15  1  0
  6 11  1  0
  1 16  1  0
  1 17  1  0
  1 18  1  0
  4 19  1  0
  5 20  1  0
  5 21  1  0
  7 22  1  0
  8 23  1  0
 10 24  1  0
 11 25  1  0
 15 26  1  0
 15 27  1  0
M  END
>  <CHROM.1>  (1) 
70.55402100,-129.21632921,-156.34120288,-149.67090436,1.29591832,0.14861798
-1.92411412

>  <Name>  (1) 
F95

>  <RI>  (1) 
2.65428e+07

>  <Rbt.Current_Directory>  (1) 
/data/out

>  <Rbt.Executable>  (1) 
rbdock ($Id: //depot/dev/client3/rdock/2013.1/src/exe/rbdock.cxx#4 $)

>  <Rbt.Library>  (1) 
libRbt.so (2013.1, Build901 2013/11/27)

>  <Rbt.Parameter_File>  (1) 
/python_libraries/phenodiscovery/docking/templates/RDOCK_TETHER.conf

>  <Rbt.Receptor>  (1) 
/data/out/rdock-opt/grid/rdock-grid.prm

>  <SCORE>  (1) 
1.04204

>  <SCORE.INTER>  (1) 
0.859407

>  <SCORE.INTER.CONST>  (1) 
1

>  <SCORE.INTER.POLAR>  (1) 
-0.358509

>  <SCORE.INTER.REPUL>  (1) 
0

>  <SCORE.INTER.ROT>  (1) 
4

>  <SCORE.INTER.VDW>  (1) 
-7.32166

>  <SCORE.INTER.norm>  (1) 
0.0572938

>  <SCORE.INTRA>  (1) 
0.18263

>  <SCORE.INTRA.DIHEDRAL>  (1) 
1.14539

>  <SCORE.INTRA.DIHEDRAL.0>  (1) 
3.1164

>  <SCORE.INTRA.POLAR>  (1) 
0

>  <SCORE.INTRA.POLAR.0>  (1) 
0

>  <SCORE.INTRA.REPUL>  (1) 
0

>  <SCORE.INTRA.REPUL.0>  (1) 
0

>  <SCORE.INTRA.VDW>  (1) 
-0.390067

>  <SCORE.INTRA.VDW.0>  (1) 
-1.48791

>  <SCORE.INTRA.norm>  (1) 
0.0121753

>  <SCORE.RESTR>  (1) 
0

>  <SCORE.RESTR.CAVITY>  (1) 
0

>  <SCORE.RESTR.norm>  (1) 
0

>  <SCORE.SYSTEM>  (1) 
0

>  <SCORE.SYSTEM.CONST>  (1) 
0

>  <SCORE.SYSTEM.DIHEDRAL>  (1) 
0

>  <SCORE.SYSTEM.norm>  (1) 
0

>  <SCORE.heavy>  (1) 
15

>  <SCORE.norm>  (1) 
0.0694691

>  <TETHERED ATOMS>  (1) 
5,9,4,6,1,2,3,7,8,10,11

>  <skeledock_score>  (1) 
73

$$$$
