F393
     RDKit          3D

 24 24  0  0  0  0  0  0  0  0999 V2000
  -18.3316   11.0165   23.7050 C   0  0  0  0  0  0  0  0  0  0  0  0
  -19.1520   10.3501   24.7982 C   0  0  0  0  0  0  0  0  0  0  0  0
  -19.2305   11.2159   25.9302 O   0  0  0  0  0  0  0  0  0  0  0  0
  -19.5347   12.5823   25.8588 C   0  0  0  0  0  0  0  0  0  0  0  0
  -20.6854   12.9581   25.5053 O   0  0  0  0  0  0  0  0  0  0  0  0
  -18.5270   13.5572   26.1825 N   0  0  0  0  0  0  0  0  0  0  0  0
  -17.1990   13.1119   26.6185 C   0  0  0  0  0  0  0  0  0  0  0  0
  -16.1502   14.1687   26.2635 C   0  0  0  0  0  0  0  0  0  0  0  0
  -16.5402   15.4409   26.7404 O   0  0  0  0  0  0  0  0  0  0  0  0
  -17.7054   15.8680   26.0630 C   0  0  0  0  0  0  0  0  0  0  0  0
  -18.8927   14.9622   26.3996 C   0  0  0  0  0  0  0  0  0  0  0  0
  -18.2492   10.3375   22.8302 H   0  0  0  0  0  0  0  0  0  0  0  0
  -17.3122   11.2458   24.0814 H   0  0  0  0  0  0  0  0  0  0  0  0
  -18.8232   11.9597   23.3852 H   0  0  0  0  0  0  0  0  0  0  0  0
  -18.6547    9.4055   25.1038 H   0  0  0  0  0  0  0  0  0  0  0  0
  -20.1565   10.0966   24.3962 H   0  0  0  0  0  0  0  0  0  0  0  0
  -17.2102   12.9505   27.7181 H   0  0  0  0  0  0  0  0  0  0  0  0
  -16.9166   12.1592   26.1204 H   0  0  0  0  0  0  0  0  0  0  0  0
  -15.9719   14.1874   25.1637 H   0  0  0  0  0  0  0  0  0  0  0  0
  -15.1883   13.8909   26.7437 H   0  0  0  0  0  0  0  0  0  0  0  0
  -17.5415   15.9028   24.9613 H   0  0  0  0  0  0  0  0  0  0  0  0
  -17.9438   16.9027   26.3882 H   0  0  0  0  0  0  0  0  0  0  0  0
  -19.7506   15.2548   25.7567 H   0  0  0  0  0  0  0  0  0  0  0  0
  -19.1806   15.1041   27.4637 H   0  0  0  0  0  0  0  0  0  0  0  0
  1  2  1  0
  2  3  1  0
  3  4  1  0
  4  5  2  0
  4  6  1  0
  6  7  1  0
  7  8  1  0
  8  9  1  0
  9 10  1  0
 10 11  1  0
 11  6  1  0
  1 12  1  0
  1 13  1  0
  1 14  1  0
  2 15  1  0
  2 16  1  0
  7 17  1  0
  7 18  1  0
  8 19  1  0
  8 20  1  0
 10 21  1  0
 10 22  1  0
 11 23  1  0
 11 24  1  0
M  END
>  <CHROM.1>  (1) 
46.65706895,67.41131977,2.45127525,0.27924463,3.12103218

>  <Name>  (1) 
F393

>  <RI>  (1) 
3.14433e+07

>  <Rbt.Current_Directory>  (1) 
/data/out

>  <Rbt.Executable>  (1) 
rbdock ($Id: //depot/dev/client3/rdock/2013.1/src/exe/rbdock.cxx#4 $)

>  <Rbt.Library>  (1) 
libRbt.so (2013.1, Build901 2013/11/27)

>  <Rbt.Parameter_File>  (1) 
/python_libraries/phenodiscovery/docking/templates/RDOCK_TETHER.conf

>  <Rbt.Receptor>  (1) 
/data/out/rdock-opt/grid/rdock-grid.prm

>  <SCORE>  (1) 
70.7562

>  <SCORE.INTER>  (1) 
63.9347

>  <SCORE.INTER.CONST>  (1) 
1

>  <SCORE.INTER.POLAR>  (1) 
0

>  <SCORE.INTER.REPUL>  (1) 
0

>  <SCORE.INTER.ROT>  (1) 
2

>  <SCORE.INTER.VDW>  (1) 
56.5347

>  <SCORE.INTER.norm>  (1) 
5.81224

>  <SCORE.INTRA>  (1) 
6.22402

>  <SCORE.INTRA.DIHEDRAL>  (1) 
13.556

>  <SCORE.INTRA.DIHEDRAL.0>  (1) 
7.19911

>  <SCORE.INTRA.POLAR>  (1) 
0

>  <SCORE.INTRA.POLAR.0>  (1) 
0

>  <SCORE.INTRA.REPUL>  (1) 
0

>  <SCORE.INTRA.REPUL.0>  (1) 
0

>  <SCORE.INTRA.VDW>  (1) 
-0.553985

>  <SCORE.INTRA.VDW.0>  (1) 
-0.0712076

>  <SCORE.INTRA.norm>  (1) 
0.56582

>  <SCORE.RESTR>  (1) 
0.597456

>  <SCORE.RESTR.CAVITY>  (1) 
0.597456

>  <SCORE.RESTR.norm>  (1) 
0.0543141

>  <SCORE.SYSTEM>  (1) 
0

>  <SCORE.SYSTEM.CONST>  (1) 
0

>  <SCORE.SYSTEM.DIHEDRAL>  (1) 
0

>  <SCORE.SYSTEM.norm>  (1) 
0

>  <SCORE.heavy>  (1) 
11

>  <SCORE.norm>  (1) 
6.43238

>  <TETHERED ATOMS>  (1) 
5,4,6,11,10,9

>  <skeledock_score>  (1) 
28

$$$$
