F584
     RDKit          3D

 27 28  0  0  0  0  0  0  0  0999 V2000
  -21.2430   17.5966   26.8566 C   0  0  0  0  0  0  0  0  0  0  0  0
  -20.8678   16.3858   26.2072 O   0  0  0  0  0  0  0  0  0  0  0  0
  -19.9910   15.4244   26.7410 C   0  0  0  0  0  0  0  0  0  0  0  0
  -19.4927   15.5491   28.0498 C   0  0  0  0  0  0  0  0  0  0  0  0
  -18.6265   14.5960   28.5696 C   0  0  0  0  0  0  0  0  0  0  0  0
  -18.2375   13.5092   27.7956 C   0  0  0  0  0  0  0  0  0  0  0  0
  -18.7044   13.3463   26.4807 C   0  0  0  0  0  0  0  0  0  0  0  0
  -18.2153   12.1983   25.7476 N   0  0  0  0  0  0  0  0  0  0  0  0
  -18.4568   11.8725   24.3726 C   0  0  0  0  0  0  0  0  0  0  0  0
  -17.4853   11.5097   23.6569 O   0  0  0  0  0  0  0  0  0  0  0  0
  -19.8411   11.7824   23.7926 C   0  0  0  0  0  0  0  0  0  0  0  0
  -20.8242   12.8035   24.3620 C   0  0  0  0  0  0  0  0  0  0  0  0
  -20.1735   14.1777   24.5476 C   0  0  0  0  0  0  0  0  0  0  0  0
  -19.6031   14.3160   25.9431 C   0  0  0  0  0  0  0  0  0  0  0  0
  -21.9434   18.1557   26.2029 H   0  0  0  0  0  0  0  0  0  0  0  0
  -21.7552   17.3727   27.8160 H   0  0  0  0  0  0  0  0  0  0  0  0
  -20.3468   18.2268   27.0375 H   0  0  0  0  0  0  0  0  0  0  0  0
  -19.7717   16.3831   28.6789 H   0  0  0  0  0  0  0  0  0  0  0  0
  -18.2508   14.7013   29.5794 H   0  0  0  0  0  0  0  0  0  0  0  0
  -17.5571   12.7851   28.2267 H   0  0  0  0  0  0  0  0  0  0  0  0
  -17.4556   11.6389   26.1987 H   0  0  0  0  0  0  0  0  0  0  0  0
  -19.7747   11.9343   22.6925 H   0  0  0  0  0  0  0  0  0  0  0  0
  -20.2371   10.7589   23.9644 H   0  0  0  0  0  0  0  0  0  0  0  0
  -21.2447   12.4315   25.3232 H   0  0  0  0  0  0  0  0  0  0  0  0
  -21.6778   12.8939   23.6545 H   0  0  0  0  0  0  0  0  0  0  0  0
  -19.3704   14.3508   23.7982 H   0  0  0  0  0  0  0  0  0  0  0  0
  -20.9476   14.9454   24.3409 H   0  0  0  0  0  0  0  0  0  0  0  0
  1  2  1  0
  2  3  1  0
  3  4  2  0
  4  5  1  0
  5  6  2  0
  6  7  1  0
  7  8  1  0
  8  9  1  0
  9 10  2  0
  9 11  1  0
 11 12  1  0
 12 13  1  0
 13 14  1  0
  3 14  1  0
 14  7  2  0
  1 15  1  0
  1 16  1  0
  1 17  1  0
  4 18  1  0
  5 19  1  0
  6 20  1  0
  8 21  1  0
 11 22  1  0
 11 23  1  0
 12 24  1  0
 12 25  1  0
 13 26  1  0
 13 27  1  0
M  END
>  <CHROM.1>  (1) 
5.45158673,-1.77182249,0.87558772,-2.12810195

>  <Name>  (1) 
F584

>  <RI>  (1) 
2.95489e+07

>  <Rbt.Current_Directory>  (1) 
/data/out

>  <Rbt.Executable>  (1) 
rbdock ($Id: //depot/dev/client3/rdock/2013.1/src/exe/rbdock.cxx#4 $)

>  <Rbt.Library>  (1) 
libRbt.so (2013.1, Build901 2013/11/27)

>  <Rbt.Parameter_File>  (1) 
/python_libraries/phenodiscovery/docking/templates/RDOCK_TETHER.conf

>  <Rbt.Receptor>  (1) 
/data/out/rdock-opt/grid/rdock-grid.prm

>  <SCORE>  (1) 
5.12534

>  <SCORE.INTER>  (1) 
5.07262

>  <SCORE.INTER.CONST>  (1) 
1

>  <SCORE.INTER.POLAR>  (1) 
0

>  <SCORE.INTER.REPUL>  (1) 
0

>  <SCORE.INTER.ROT>  (1) 
1

>  <SCORE.INTER.VDW>  (1) 
-1.32738

>  <SCORE.INTER.norm>  (1) 
0.36233

>  <SCORE.INTRA>  (1) 
0.0527165

>  <SCORE.INTRA.DIHEDRAL>  (1) 
0.0446151

>  <SCORE.INTRA.DIHEDRAL.0>  (1) 
3.32929e-05

>  <SCORE.INTRA.POLAR>  (1) 
0

>  <SCORE.INTRA.POLAR.0>  (1) 
0

>  <SCORE.INTRA.REPUL>  (1) 
0

>  <SCORE.INTRA.REPUL.0>  (1) 
0

>  <SCORE.INTRA.VDW>  (1) 
0.030409

>  <SCORE.INTRA.VDW.0>  (1) 
0.203742

>  <SCORE.INTRA.norm>  (1) 
0.00376547

>  <SCORE.RESTR>  (1) 
0

>  <SCORE.RESTR.CAVITY>  (1) 
0

>  <SCORE.RESTR.norm>  (1) 
0

>  <SCORE.SYSTEM>  (1) 
0

>  <SCORE.SYSTEM.CONST>  (1) 
0

>  <SCORE.SYSTEM.DIHEDRAL>  (1) 
0

>  <SCORE.SYSTEM.norm>  (1) 
0

>  <SCORE.heavy>  (1) 
14

>  <SCORE.norm>  (1) 
0.366096

>  <TETHERED ATOMS>  (1) 
5,6,7,8,9,4,3,14,13

>  <skeledock_score>  (1) 
42

$$$$
