F229
     RDKit          3D

 27 28  0  0  0  0  0  0  0  0999 V2000
  -23.9365   15.5609   30.0479 C   0  0  0  0  0  0  0  0  0  0  0  0
  -23.3261   14.3246   29.4754 C   0  0  0  0  0  0  0  0  0  0  0  0
  -23.7618   13.0781   29.7432 N   0  0  0  0  0  0  0  0  0  0  0  0
  -22.9778   12.2323   29.0926 N   0  0  0  0  0  0  0  0  0  0  0  0
  -22.0381   12.9116   28.4101 C   0  0  0  0  0  0  0  0  0  0  0  0
  -22.2371   14.2591   28.6234 C   0  0  0  0  0  0  0  0  0  0  0  0
  -21.3907   15.3878   28.1133 C   0  0  0  0  0  0  0  0  0  0  0  0
  -19.9796   15.0026   28.0885 N   0  0  0  0  0  0  0  0  0  0  0  0
  -19.3250   14.4883   26.9139 C   0  0  0  0  0  0  0  0  0  0  0  0
  -19.4796   15.1025   25.6550 C   0  0  0  0  0  0  0  0  0  0  0  0
  -18.8337   14.5796   24.5299 C   0  0  0  0  0  0  0  0  0  0  0  0
  -18.0248   13.4479   24.6481 C   0  0  0  0  0  0  0  0  0  0  0  0
  -17.8642   12.8320   25.8904 C   0  0  0  0  0  0  0  0  0  0  0  0
  -18.5138   13.3431   27.0179 C   0  0  0  0  0  0  0  0  0  0  0  0
  -18.3389   12.7281   28.2148 F   0  0  0  0  0  0  0  0  0  0  0  0
  -23.1790   16.1102   30.6448 H   0  0  0  0  0  0  0  0  0  0  0  0
  -24.7923   15.2982   30.7047 H   0  0  0  0  0  0  0  0  0  0  0  0
  -24.2992   16.2128   29.2262 H   0  0  0  0  0  0  0  0  0  0  0  0
  -23.0816   11.1942   29.1238 H   0  0  0  0  0  0  0  0  0  0  0  0
  -21.2613   12.4565   27.8097 H   0  0  0  0  0  0  0  0  0  0  0  0
  -21.5247   16.2688   28.7768 H   0  0  0  0  0  0  0  0  0  0  0  0
  -21.7211   15.6597   27.0880 H   0  0  0  0  0  0  0  0  0  0  0  0
  -19.3976   15.1821   28.9391 H   0  0  0  0  0  0  0  0  0  0  0  0
  -20.1002   15.9796   25.5342 H   0  0  0  0  0  0  0  0  0  0  0  0
  -18.9587   15.0553   23.5657 H   0  0  0  0  0  0  0  0  0  0  0  0
  -17.5232   13.0476   23.7765 H   0  0  0  0  0  0  0  0  0  0  0  0
  -17.2368   11.9543   25.9786 H   0  0  0  0  0  0  0  0  0  0  0  0
  1  2  1  0
  2  3  2  0
  3  4  1  0
  4  5  1  0
  5  6  2  0
  6  7  1  0
  7  8  1  0
  8  9  1  0
  9 10  2  0
 10 11  1  0
 11 12  2  0
 12 13  1  0
 13 14  2  0
 14 15  1  0
  6  2  1  0
  9 14  1  0
  1 16  1  0
  1 17  1  0
  1 18  1  0
  4 19  1  0
  5 20  1  0
  7 21  1  0
  7 22  1  0
  8 23  1  0
 10 24  1  0
 11 25  1  0
 12 26  1  0
 13 27  1  0
M  END
>  <CHROM.1>  (1) 
140.05312009,95.33510031,46.48667299,-0.37624015,-0.63859563,2.26777932

>  <Name>  (1) 
F229

>  <RI>  (1) 
3.89568e+07

>  <Rbt.Current_Directory>  (1) 
/data/out

>  <Rbt.Executable>  (1) 
rbdock ($Id: //depot/dev/client3/rdock/2013.1/src/exe/rbdock.cxx#4 $)

>  <Rbt.Library>  (1) 
libRbt.so (2013.1, Build901 2013/11/27)

>  <Rbt.Parameter_File>  (1) 
/python_libraries/phenodiscovery/docking/templates/RDOCK_TETHER.conf

>  <Rbt.Receptor>  (1) 
/data/out/rdock-opt/grid/rdock-grid.prm

>  <SCORE>  (1) 
0.569562

>  <SCORE.INTER>  (1) 
-2.41253

>  <SCORE.INTER.CONST>  (1) 
1

>  <SCORE.INTER.POLAR>  (1) 
0

>  <SCORE.INTER.REPUL>  (1) 
0

>  <SCORE.INTER.ROT>  (1) 
3

>  <SCORE.INTER.VDW>  (1) 
-10.8125

>  <SCORE.INTER.norm>  (1) 
-0.160835

>  <SCORE.INTRA>  (1) 
2.98209

>  <SCORE.INTRA.DIHEDRAL>  (1) 
5.85231

>  <SCORE.INTRA.DIHEDRAL.0>  (1) 
4.74544

>  <SCORE.INTRA.POLAR>  (1) 
0

>  <SCORE.INTRA.POLAR.0>  (1) 
0

>  <SCORE.INTRA.REPUL>  (1) 
0

>  <SCORE.INTRA.REPUL.0>  (1) 
0

>  <SCORE.INTRA.VDW>  (1) 
0.0559354

>  <SCORE.INTRA.VDW.0>  (1) 
-1.24933

>  <SCORE.INTRA.norm>  (1) 
0.198806

>  <SCORE.RESTR>  (1) 
0

>  <SCORE.RESTR.CAVITY>  (1) 
0

>  <SCORE.RESTR.norm>  (1) 
0

>  <SCORE.SYSTEM>  (1) 
0

>  <SCORE.SYSTEM.CONST>  (1) 
0

>  <SCORE.SYSTEM.DIHEDRAL>  (1) 
0

>  <SCORE.SYSTEM.norm>  (1) 
0

>  <SCORE.heavy>  (1) 
15

>  <SCORE.norm>  (1) 
0.0379708

>  <TETHERED ATOMS>  (1) 
9,14,13,12,10,11,1,2,6,7,8

>  <skeledock_score>  (1) 
59

$$$$
