F616
     RDKit          3D

 26 26  0  0  0  0  0  0  0  0999 V2000
  -17.9029   12.9296   24.1765 C   0  0  0  0  0  0  0  0  0  0  0  0
  -18.1309   14.4678   25.0468 S   0  0  0  0  0  0  0  0  0  0  0  0
  -16.7983   15.1473   25.1897 O   0  0  0  0  0  0  0  0  0  0  0  0
  -19.0499   15.3556   24.2554 O   0  0  0  0  0  0  0  0  0  0  0  0
  -18.7996   14.1980   26.6286 N   0  0  0  0  0  0  0  0  0  0  0  0
  -20.2551   14.0751   26.5366 C   0  0  0  0  0  0  0  0  0  0  0  0
  -20.8271   13.5943   27.8719 C   0  0  0  0  0  0  0  0  0  0  0  0
  -20.4315   14.5308   28.9841 C   0  0  0  0  0  0  0  0  0  0  0  0
  -19.3313   14.2277   29.8050 C   0  0  0  0  0  0  0  0  0  0  0  0
  -18.9424   15.1096   30.8173 C   0  0  0  0  0  0  0  0  0  0  0  0
  -19.6515   16.2962   31.0231 C   0  0  0  0  0  0  0  0  0  0  0  0
  -19.2729   17.1506   32.0055 F   0  0  0  0  0  0  0  0  0  0  0  0
  -20.7531   16.6004   30.2183 C   0  0  0  0  0  0  0  0  0  0  0  0
  -21.1444   15.7220   29.2028 C   0  0  0  0  0  0  0  0  0  0  0  0
  -17.3572   12.2134   24.8247 H   0  0  0  0  0  0  0  0  0  0  0  0
  -17.3152   13.1107   23.2531 H   0  0  0  0  0  0  0  0  0  0  0  0
  -18.8889   12.5030   23.8996 H   0  0  0  0  0  0  0  0  0  0  0  0
  -18.4167   13.2858   26.9692 H   0  0  0  0  0  0  0  0  0  0  0  0
  -20.7021   15.0629   26.2874 H   0  0  0  0  0  0  0  0  0  0  0  0
  -20.5289   13.3458   25.7412 H   0  0  0  0  0  0  0  0  0  0  0  0
  -21.9347   13.5338   27.7902 H   0  0  0  0  0  0  0  0  0  0  0  0
  -20.4512   12.5729   28.0985 H   0  0  0  0  0  0  0  0  0  0  0  0
  -18.7738   13.3110   29.6585 H   0  0  0  0  0  0  0  0  0  0  0  0
  -18.0914   14.8717   31.4426 H   0  0  0  0  0  0  0  0  0  0  0  0
  -21.3032   17.5188   30.3785 H   0  0  0  0  0  0  0  0  0  0  0  0
  -21.9945   15.9769   28.5824 H   0  0  0  0  0  0  0  0  0  0  0  0
  1  2  1  0
  2  3  2  0
  2  4  2  0
  2  5  1  0
  5  6  1  0
  6  7  1  0
  7  8  1  0
  8  9  2  0
  9 10  1  0
 10 11  2  0
 11 12  1  0
 11 13  1  0
 13 14  2  0
  8 14  1  0
  1 15  1  0
  1 16  1  0
  1 17  1  0
  5 18  1  0
  6 19  1  0
  6 20  1  0
  7 21  1  0
  7 22  1  0
  9 23  1  0
 10 24  1  0
 13 25  1  0
 14 26  1  0
M  END
>  <CHROM.1>  (1) 
-83.61393097,170.01800598,56.92376821,-97.70314852,1.88979684,0.19890443
1.19145600

>  <Name>  (1) 
F616

>  <RI>  (1) 
2.32485e+07

>  <Rbt.Current_Directory>  (1) 
/data/out

>  <Rbt.Executable>  (1) 
rbdock ($Id: //depot/dev/client3/rdock/2013.1/src/exe/rbdock.cxx#4 $)

>  <Rbt.Library>  (1) 
libRbt.so (2013.1, Build901 2013/11/27)

>  <Rbt.Parameter_File>  (1) 
/python_libraries/phenodiscovery/docking/templates/RDOCK_TETHER.conf

>  <Rbt.Receptor>  (1) 
/data/out/rdock-opt/grid/rdock-grid.prm

>  <SCORE>  (1) 
1.42359

>  <SCORE.INTER>  (1) 
1.58497

>  <SCORE.INTER.CONST>  (1) 
1

>  <SCORE.INTER.POLAR>  (1) 
0

>  <SCORE.INTER.REPUL>  (1) 
0

>  <SCORE.INTER.ROT>  (1) 
4

>  <SCORE.INTER.VDW>  (1) 
-7.81503

>  <SCORE.INTER.norm>  (1) 
0.113212

>  <SCORE.INTRA>  (1) 
-0.161379

>  <SCORE.INTRA.DIHEDRAL>  (1) 
0.759145

>  <SCORE.INTRA.DIHEDRAL.0>  (1) 
0.996714

>  <SCORE.INTRA.POLAR>  (1) 
0

>  <SCORE.INTRA.POLAR.0>  (1) 
0

>  <SCORE.INTRA.REPUL>  (1) 
0

>  <SCORE.INTRA.REPUL.0>  (1) 
0

>  <SCORE.INTRA.VDW>  (1) 
-0.540952

>  <SCORE.INTRA.VDW.0>  (1) 
-0.691235

>  <SCORE.INTRA.norm>  (1) 
-0.0115271

>  <SCORE.RESTR>  (1) 
0

>  <SCORE.RESTR.CAVITY>  (1) 
0

>  <SCORE.RESTR.norm>  (1) 
0

>  <SCORE.SYSTEM>  (1) 
0

>  <SCORE.SYSTEM.CONST>  (1) 
0

>  <SCORE.SYSTEM.DIHEDRAL>  (1) 
0

>  <SCORE.SYSTEM.norm>  (1) 
0

>  <SCORE.heavy>  (1) 
14

>  <SCORE.norm>  (1) 
0.101685

>  <TETHERED ATOMS>  (1) 
8,9,10,11,13,14,1,2,5,6,7

>  <skeledock_score>  (1) 
58

$$$$
