F760
     RDKit          3D

 17 18  0  0  0  0  0  0  0  0999 V2000
  -17.9448   11.9877   28.2883 O   0  0  0  0  0  0  0  0  0  0  0  0
  -18.5765   13.0543   28.5075 C   0  0  0  0  0  0  0  0  0  0  0  0
  -18.2658   14.0019   29.6291 C   0  0  0  0  0  0  0  0  0  0  0  0
  -19.2998   15.0506   29.3704 C   0  0  0  0  0  0  0  0  0  0  0  0
  -20.0651   14.7190   28.2714 C   0  0  0  0  0  0  0  0  0  0  0  0
  -21.0842   15.5520   27.8122 C   0  0  0  0  0  0  0  0  0  0  0  0
  -21.3241   16.7531   28.5019 C   0  0  0  0  0  0  0  0  0  0  0  0
  -22.7084   17.9282   27.9110 Br  0  0  0  0  0  0  0  0  0  0  0  0
  -20.5460   17.0933   29.6280 C   0  0  0  0  0  0  0  0  0  0  0  0
  -19.5229   16.2371   30.0699 C   0  0  0  0  0  0  0  0  0  0  0  0
  -19.6662   13.4871   27.7003 N   0  0  0  0  0  0  0  0  0  0  0  0
  -17.2416   14.4186   29.5282 H   0  0  0  0  0  0  0  0  0  0  0  0
  -18.4245   13.5201   30.6167 H   0  0  0  0  0  0  0  0  0  0  0  0
  -21.6718   15.2799   26.9449 H   0  0  0  0  0  0  0  0  0  0  0  0
  -20.7332   18.0192   30.1563 H   0  0  0  0  0  0  0  0  0  0  0  0
  -18.9186   16.4954   30.9298 H   0  0  0  0  0  0  0  0  0  0  0  0
  -20.0634   13.0146   26.8583 H   0  0  0  0  0  0  0  0  0  0  0  0
  1  2  2  0
  2  3  1  0
  3  4  1  0
  4  5  2  0
  5  6  1  0
  6  7  2  0
  7  8  1  0
  7  9  1  0
  9 10  2  0
  5 11  1  0
 11  2  1  0
 10  4  1  0
  3 12  1  0
  3 13  1  0
  6 14  1  0
  9 15  1  0
 10 16  1  0
 11 17  1  0
M  END
>  <CHROM.1>  (1) 
-2.24487554,0.69878830,-2.46035796

>  <Name>  (1) 
F760

>  <RI>  (1) 
2.05288e+07

>  <Rbt.Current_Directory>  (1) 
/data/out

>  <Rbt.Executable>  (1) 
rbdock ($Id: //depot/dev/client3/rdock/2013.1/src/exe/rbdock.cxx#4 $)

>  <Rbt.Library>  (1) 
libRbt.so (2013.1, Build901 2013/11/27)

>  <Rbt.Parameter_File>  (1) 
/python_libraries/phenodiscovery/docking/templates/RDOCK_TETHER.conf

>  <Rbt.Receptor>  (1) 
/data/out/rdock-opt/grid/rdock-grid.prm

>  <SCORE>  (1) 
-0.366443

>  <SCORE.INTER>  (1) 
-0.366443

>  <SCORE.INTER.CONST>  (1) 
1

>  <SCORE.INTER.POLAR>  (1) 
0

>  <SCORE.INTER.REPUL>  (1) 
0

>  <SCORE.INTER.ROT>  (1) 
0

>  <SCORE.INTER.VDW>  (1) 
-5.76644

>  <SCORE.INTER.norm>  (1) 
-0.033313

>  <SCORE.INTRA>  (1) 
0

>  <SCORE.INTRA.DIHEDRAL>  (1) 
0

>  <SCORE.INTRA.DIHEDRAL.0>  (1) 
0

>  <SCORE.INTRA.POLAR>  (1) 
0

>  <SCORE.INTRA.POLAR.0>  (1) 
0

>  <SCORE.INTRA.REPUL>  (1) 
0

>  <SCORE.INTRA.REPUL.0>  (1) 
0

>  <SCORE.INTRA.VDW>  (1) 
0

>  <SCORE.INTRA.VDW.0>  (1) 
0

>  <SCORE.INTRA.norm>  (1) 
0

>  <SCORE.RESTR>  (1) 
0

>  <SCORE.RESTR.CAVITY>  (1) 
0

>  <SCORE.RESTR.norm>  (1) 
0

>  <SCORE.SYSTEM>  (1) 
0

>  <SCORE.SYSTEM.CONST>  (1) 
0

>  <SCORE.SYSTEM.DIHEDRAL>  (1) 
0

>  <SCORE.SYSTEM.norm>  (1) 
0

>  <SCORE.heavy>  (1) 
11

>  <SCORE.norm>  (1) 
-0.033313

>  <TETHERED ATOMS>  (1) 
4,10,9,7,5,6,1,2,11

>  <skeledock_score>  (1) 
37

$$$$
