F529
     RDKit          3D

 23 23  0  0  0  0  0  0  0  0999 V2000
  -22.7875   17.5185   28.4558 C   0  0  0  0  0  0  0  0  0  0  0  0
  -21.8029   16.5824   27.9220 N   0  0  0  0  0  0  0  0  0  0  0  0
  -20.6778   16.0891   28.6831 C   0  0  0  0  0  0  0  0  0  0  0  0
  -20.5246   16.4521   30.0381 C   0  0  0  0  0  0  0  0  0  0  0  0
  -19.4505   15.9755   30.7894 C   0  0  0  0  0  0  0  0  0  0  0  0
  -18.5137   15.1267   30.2079 C   0  0  0  0  0  0  0  0  0  0  0  0
  -18.6409   14.7567   28.8700 C   0  0  0  0  0  0  0  0  0  0  0  0
  -19.7094   15.2333   28.0900 C   0  0  0  0  0  0  0  0  0  0  0  0
  -19.7878   14.7875   26.3742 S   0  0  0  0  0  0  0  0  0  0  0  0
  -19.7907   13.2911   26.2455 O   0  0  0  0  0  0  0  0  0  0  0  0
  -21.0494   15.3452   25.7771 O   0  0  0  0  0  0  0  0  0  0  0  0
  -18.4141   15.4213   25.4312 C   0  0  0  0  0  0  0  0  0  0  0  0
  -23.5074   17.8043   27.6597 H   0  0  0  0  0  0  0  0  0  0  0  0
  -23.3537   17.0431   29.2838 H   0  0  0  0  0  0  0  0  0  0  0  0
  -22.2788   18.4361   28.8194 H   0  0  0  0  0  0  0  0  0  0  0  0
  -21.9402   16.2894   26.9312 H   0  0  0  0  0  0  0  0  0  0  0  0
  -21.2364   17.1019   30.5277 H   0  0  0  0  0  0  0  0  0  0  0  0
  -19.3478   16.2618   31.8282 H   0  0  0  0  0  0  0  0  0  0  0  0
  -17.6834   14.7558   30.7951 H   0  0  0  0  0  0  0  0  0  0  0  0
  -17.8919   14.1016   28.4497 H   0  0  0  0  0  0  0  0  0  0  0  0
  -17.4666   14.9808   25.8042 H   0  0  0  0  0  0  0  0  0  0  0  0
  -18.3762   16.5268   25.5195 H   0  0  0  0  0  0  0  0  0  0  0  0
  -18.5432   15.1478   24.3636 H   0  0  0  0  0  0  0  0  0  0  0  0
  1  2  1  0
  2  3  1  0
  3  4  2  0
  4  5  1  0
  5  6  2  0
  6  7  1  0
  7  8  2  0
  8  9  1  0
  9 10  2  0
  9 11  2  0
  9 12  1  0
  3  8  1  0
  1 13  1  0
  1 14  1  0
  1 15  1  0
  2 16  1  0
  4 17  1  0
  5 18  1  0
  6 19  1  0
  7 20  1  0
 12 21  1  0
 12 22  1  0
 12 23  1  0
M  END
>  <CHROM.1>  (1) 
3.46299075,-124.89933941,1.85887616,-0.62137445,1.12759783

>  <Name>  (1) 
F529

>  <RI>  (1) 
9.87634e+06

>  <Rbt.Current_Directory>  (1) 
/data/out

>  <Rbt.Executable>  (1) 
rbdock ($Id: //depot/dev/client3/rdock/2013.1/src/exe/rbdock.cxx#4 $)

>  <Rbt.Library>  (1) 
libRbt.so (2013.1, Build901 2013/11/27)

>  <Rbt.Parameter_File>  (1) 
/python_libraries/phenodiscovery/docking/templates/RDOCK_TETHER.conf

>  <Rbt.Receptor>  (1) 
/data/out/rdock-opt/grid/rdock-grid.prm

>  <SCORE>  (1) 
-1.24655

>  <SCORE.INTER>  (1) 
1.20976

>  <SCORE.INTER.CONST>  (1) 
1

>  <SCORE.INTER.POLAR>  (1) 
0

>  <SCORE.INTER.REPUL>  (1) 
0.0104101

>  <SCORE.INTER.ROT>  (1) 
2

>  <SCORE.INTER.VDW>  (1) 
-6.24229

>  <SCORE.INTER.norm>  (1) 
0.100814

>  <SCORE.INTRA>  (1) 
-2.45631

>  <SCORE.INTRA.DIHEDRAL>  (1) 
-0.468903

>  <SCORE.INTRA.DIHEDRAL.0>  (1) 
1.68895

>  <SCORE.INTRA.POLAR>  (1) 
-0.565585

>  <SCORE.INTRA.POLAR.0>  (1) 
0

>  <SCORE.INTRA.REPUL>  (1) 
0

>  <SCORE.INTRA.REPUL.0>  (1) 
0

>  <SCORE.INTRA.VDW>  (1) 
-0.298872

>  <SCORE.INTRA.VDW.0>  (1) 
-0.454293

>  <SCORE.INTRA.norm>  (1) 
-0.204693

>  <SCORE.RESTR>  (1) 
0

>  <SCORE.RESTR.CAVITY>  (1) 
0

>  <SCORE.RESTR.norm>  (1) 
0

>  <SCORE.SYSTEM>  (1) 
0

>  <SCORE.SYSTEM.CONST>  (1) 
0

>  <SCORE.SYSTEM.DIHEDRAL>  (1) 
0

>  <SCORE.SYSTEM.norm>  (1) 
0

>  <SCORE.heavy>  (1) 
12

>  <SCORE.norm>  (1) 
-0.103879

>  <TETHERED ATOMS>  (1) 
3,8,7,6,4,5,1,2,9,10

>  <skeledock_score>  (1) 
55

$$$$
