F179
     RDKit          3D

 29 30  0  0  0  0  0  0  0  0999 V2000
  -19.9233   11.4963   25.4099 C   0  0  0  0  0  0  0  0  0  0  0  0
  -19.6682   13.0020   25.3924 C   0  0  0  0  0  0  0  0  0  0  0  0
  -18.5558   13.2761   24.5847 O   0  0  0  0  0  0  0  0  0  0  0  0
  -19.4294   13.5173   26.7842 C   0  0  0  0  0  0  0  0  0  0  0  0
  -18.4717   13.1015   27.6917 C   0  0  0  0  0  0  0  0  0  0  0  0
  -18.6110   13.8048   28.8329 N   0  0  0  0  0  0  0  0  0  0  0  0
  -19.6059   14.6638   28.6583 N   0  0  0  0  0  0  0  0  0  0  0  0
  -20.1338   14.5084   27.4299 C   0  0  0  0  0  0  0  0  0  0  0  0
  -20.1412   15.5501   29.6955 C   0  0  0  0  0  0  0  0  0  0  0  0
  -19.0543   16.0047   30.6537 C   0  0  0  0  0  0  0  0  0  0  0  0
  -19.5674   17.3102   31.2438 C   0  0  0  0  0  0  0  0  0  0  0  0
  -20.6098   17.8563   30.2649 C   0  0  0  0  0  0  0  0  0  0  0  0
  -20.7344   16.8377   29.1362 C   0  0  0  0  0  0  0  0  0  0  0  0
  -19.0331   10.9516   25.7915 H   0  0  0  0  0  0  0  0  0  0  0  0
  -20.1408   11.1412   24.3803 H   0  0  0  0  0  0  0  0  0  0  0  0
  -20.7973   11.2625   26.0551 H   0  0  0  0  0  0  0  0  0  0  0  0
  -20.5718   13.4956   24.9642 H   0  0  0  0  0  0  0  0  0  0  0  0
  -18.4592   14.2641   24.5567 H   0  0  0  0  0  0  0  0  0  0  0  0
  -17.7325   12.3267   27.5385 H   0  0  0  0  0  0  0  0  0  0  0  0
  -20.9804   15.0604   27.0414 H   0  0  0  0  0  0  0  0  0  0  0  0
  -20.9332   15.0191   30.2732 H   0  0  0  0  0  0  0  0  0  0  0  0
  -18.8699   15.2450   31.4441 H   0  0  0  0  0  0  0  0  0  0  0  0
  -18.1076   16.1959   30.1003 H   0  0  0  0  0  0  0  0  0  0  0  0
  -20.0423   17.1156   32.2308 H   0  0  0  0  0  0  0  0  0  0  0  0
  -18.7334   18.0320   31.3832 H   0  0  0  0  0  0  0  0  0  0  0  0
  -21.5885   17.9728   30.7803 H   0  0  0  0  0  0  0  0  0  0  0  0
  -20.2970   18.8456   29.8650 H   0  0  0  0  0  0  0  0  0  0  0  0
  -20.1543   17.1999   28.2596 H   0  0  0  0  0  0  0  0  0  0  0  0
  -21.7947   16.6928   28.8351 H   0  0  0  0  0  0  0  0  0  0  0  0
  1  2  1  0
  2  3  1  0
  2  4  1  0
  4  5  1  0
  5  6  2  0
  6  7  1  0
  7  8  1  0
  7  9  1  0
  9 10  1  0
 10 11  1  0
 11 12  1  0
 12 13  1  0
  4  8  2  0
 13  9  1  0
  1 14  1  0
  1 15  1  0
  1 16  1  0
  2 17  1  0
  3 18  1  0
  5 19  1  0
  8 20  1  0
  9 21  1  0
 10 22  1  0
 10 23  1  0
 11 24  1  0
 11 25  1  0
 12 26  1  0
 12 27  1  0
 13 28  1  0
 13 29  1  0
M  END
>  <CHROM.1>  (1) 
176.65111858,56.65078129,33.54748401,1.52175994,-0.82193319,-2.20896691

>  <Name>  (1) 
F179

>  <RI>  (1) 
1.4905e+07

>  <Rbt.Current_Directory>  (1) 
/data/out

>  <Rbt.Executable>  (1) 
rbdock ($Id: //depot/dev/client3/rdock/2013.1/src/exe/rbdock.cxx#4 $)

>  <Rbt.Library>  (1) 
libRbt.so (2013.1, Build901 2013/11/27)

>  <Rbt.Parameter_File>  (1) 
/python_libraries/phenodiscovery/docking/templates/RDOCK_TETHER.conf

>  <Rbt.Receptor>  (1) 
/data/out/rdock-opt/grid/rdock-grid.prm

>  <SCORE>  (1) 
-1.91885

>  <SCORE.INTER>  (1) 
-1.52261

>  <SCORE.INTER.CONST>  (1) 
1

>  <SCORE.INTER.POLAR>  (1) 
0

>  <SCORE.INTER.REPUL>  (1) 
0

>  <SCORE.INTER.ROT>  (1) 
2

>  <SCORE.INTER.VDW>  (1) 
-8.92261

>  <SCORE.INTER.norm>  (1) 
-0.117124

>  <SCORE.INTRA>  (1) 
-0.39624

>  <SCORE.INTRA.DIHEDRAL>  (1) 
-0.901644

>  <SCORE.INTRA.DIHEDRAL.0>  (1) 
4.80018

>  <SCORE.INTRA.POLAR>  (1) 
0

>  <SCORE.INTRA.POLAR.0>  (1) 
0

>  <SCORE.INTRA.REPUL>  (1) 
0

>  <SCORE.INTRA.REPUL.0>  (1) 
0

>  <SCORE.INTRA.VDW>  (1) 
0.0545816

>  <SCORE.INTRA.VDW.0>  (1) 
-1.79418

>  <SCORE.INTRA.norm>  (1) 
-0.03048

>  <SCORE.RESTR>  (1) 
0

>  <SCORE.RESTR.CAVITY>  (1) 
0

>  <SCORE.RESTR.norm>  (1) 
0

>  <SCORE.SYSTEM>  (1) 
0

>  <SCORE.SYSTEM.CONST>  (1) 
0

>  <SCORE.SYSTEM.DIHEDRAL>  (1) 
0

>  <SCORE.SYSTEM.norm>  (1) 
0

>  <SCORE.heavy>  (1) 
13

>  <SCORE.norm>  (1) 
-0.147604

>  <TETHERED ATOMS>  (1) 
8,10,1,2,3,9,11

>  <skeledock_score>  (1) 
35

$$$$
