F369
     RDKit          3D

 32 33  0  0  0  0  0  0  0  0999 V2000
  -26.4598   13.4368   28.7816 C   0  0  0  0  0  0  0  0  0  0  0  0
  -25.4240   13.4958   29.8991 C   0  0  0  0  0  0  0  0  0  0  0  0
  -24.3139   14.3690   29.5275 N   0  0  0  0  0  0  0  0  0  0  0  0
  -23.0452   13.9820   29.2984 C   0  0  0  0  0  0  0  0  0  0  0  0
  -22.3227   15.1118   28.9872 C   0  0  0  0  0  0  0  0  0  0  0  0
  -20.9648   15.1741   28.5400 N   0  0  0  0  0  0  0  0  0  0  0  0
  -20.1312   14.0091   28.4584 C   0  0  0  0  0  0  0  0  0  0  0  0
  -20.2750   13.0772   29.2957 O   0  0  0  0  0  0  0  0  0  0  0  0
  -19.1004   13.8588   27.3674 C   0  0  0  0  0  0  0  0  0  0  0  0
  -19.4061   14.6482   26.0952 C   0  0  0  0  0  0  0  0  0  0  0  0
  -18.7858   13.8507   24.9478 C   0  0  0  0  0  0  0  0  0  0  0  0
  -18.3327   12.5127   25.5271 C   0  0  0  0  0  0  0  0  0  0  0  0
  -18.9500   12.4169   26.9115 C   0  0  0  0  0  0  0  0  0  0  0  0
  -23.2160   16.1612   29.0321 C   0  0  0  0  0  0  0  0  0  0  0  0
  -24.4279   15.6812   29.3750 N   0  0  0  0  0  0  0  0  0  0  0  0
  -27.3143   12.8025   29.0984 H   0  0  0  0  0  0  0  0  0  0  0  0
  -26.8348   14.4578   28.5559 H   0  0  0  0  0  0  0  0  0  0  0  0
  -26.0136   12.9995   27.8636 H   0  0  0  0  0  0  0  0  0  0  0  0
  -25.9118   13.8806   30.8211 H   0  0  0  0  0  0  0  0  0  0  0  0
  -25.0398   12.4747   30.1109 H   0  0  0  0  0  0  0  0  0  0  0  0
  -22.6911   12.9595   29.3241 H   0  0  0  0  0  0  0  0  0  0  0  0
  -20.6106   16.0890   28.1838 H   0  0  0  0  0  0  0  0  0  0  0  0
  -18.1118   14.1997   27.7539 H   0  0  0  0  0  0  0  0  0  0  0  0
  -18.9677   15.6684   26.1534 H   0  0  0  0  0  0  0  0  0  0  0  0
  -20.4988   14.7473   25.9239 H   0  0  0  0  0  0  0  0  0  0  0  0
  -19.5378   13.6877   24.1447 H   0  0  0  0  0  0  0  0  0  0  0  0
  -17.9179   14.3969   24.5175 H   0  0  0  0  0  0  0  0  0  0  0  0
  -17.2235   12.4982   25.6138 H   0  0  0  0  0  0  0  0  0  0  0  0
  -18.6559   11.6635   24.8864 H   0  0  0  0  0  0  0  0  0  0  0  0
  -18.3020   11.8372   27.6047 H   0  0  0  0  0  0  0  0  0  0  0  0
  -19.9415   11.9175   26.8327 H   0  0  0  0  0  0  0  0  0  0  0  0
  -23.0062   17.1994   28.8121 H   0  0  0  0  0  0  0  0  0  0  0  0
  1  2  1  0
  2  3  1  0
  3  4  1  0
  4  5  2  0
  5  6  1  0
  6  7  1  0
  7  8  2  0
  7  9  1  0
  9 10  1  0
 10 11  1  0
 11 12  1  0
 12 13  1  0
  5 14  1  0
 14 15  2  0
 15  3  1  0
 13  9  1  0
  1 16  1  0
  1 17  1  0
  1 18  1  0
  2 19  1  0
  2 20  1  0
  4 21  1  0
  6 22  1  0
  9 23  1  0
 10 24  1  0
 10 25  1  0
 11 26  1  0
 11 27  1  0
 12 28  1  0
 12 29  1  0
 13 30  1  0
 13 31  1  0
 14 32  1  0
M  END
>  <CHROM.1>  (1) 
-113.09740735,-5.04859015,-25.34446880,-3.00071024,-0.66924552,2.91201622

>  <Name>  (1) 
F369

>  <RI>  (1) 
4.01774e+07

>  <Rbt.Current_Directory>  (1) 
/data/out

>  <Rbt.Executable>  (1) 
rbdock ($Id: //depot/dev/client3/rdock/2013.1/src/exe/rbdock.cxx#4 $)

>  <Rbt.Library>  (1) 
libRbt.so (2013.1, Build901 2013/11/27)

>  <Rbt.Parameter_File>  (1) 
/python_libraries/phenodiscovery/docking/templates/RDOCK_TETHER.conf

>  <Rbt.Receptor>  (1) 
/data/out/rdock-opt/grid/rdock-grid.prm

>  <SCORE>  (1) 
-2.75739

>  <SCORE.INTER>  (1) 
-1.13151

>  <SCORE.INTER.CONST>  (1) 
1

>  <SCORE.INTER.POLAR>  (1) 
0

>  <SCORE.INTER.REPUL>  (1) 
0

>  <SCORE.INTER.ROT>  (1) 
3

>  <SCORE.INTER.VDW>  (1) 
-9.53151

>  <SCORE.INTER.norm>  (1) 
-0.0754341

>  <SCORE.INTRA>  (1) 
-1.62588

>  <SCORE.INTRA.DIHEDRAL>  (1) 
-4.42632

>  <SCORE.INTRA.DIHEDRAL.0>  (1) 
9.95495

>  <SCORE.INTRA.POLAR>  (1) 
0

>  <SCORE.INTRA.POLAR.0>  (1) 
0

>  <SCORE.INTRA.REPUL>  (1) 
0

>  <SCORE.INTRA.REPUL.0>  (1) 
0

>  <SCORE.INTRA.VDW>  (1) 
0.587282

>  <SCORE.INTRA.VDW.0>  (1) 
-2.27554

>  <SCORE.INTRA.norm>  (1) 
-0.108392

>  <SCORE.RESTR>  (1) 
0

>  <SCORE.RESTR.CAVITY>  (1) 
0

>  <SCORE.RESTR.norm>  (1) 
0

>  <SCORE.SYSTEM>  (1) 
0

>  <SCORE.SYSTEM.CONST>  (1) 
0

>  <SCORE.SYSTEM.DIHEDRAL>  (1) 
0

>  <SCORE.SYSTEM.norm>  (1) 
0

>  <SCORE.heavy>  (1) 
15

>  <SCORE.norm>  (1) 
-0.183826

>  <TETHERED ATOMS>  (1) 
5,6,7,9,13,14,12,3,4,11,10

>  <skeledock_score>  (1) 
42

$$$$
