F367
     RDKit          3D

 31 32  0  0  0  0  0  0  0  0999 V2000
  -19.1839   13.1217   32.3050 C   0  0  0  0  0  0  0  0  0  0  0  0
  -18.4230   13.2963   30.9952 C   0  0  0  0  0  0  0  0  0  0  0  0
  -19.1791   14.1342   30.0685 N   0  0  0  0  0  0  0  0  0  0  0  0
  -19.5113   13.8167   28.8022 C   0  0  0  0  0  0  0  0  0  0  0  0
  -20.2021   14.8820   28.2681 C   0  0  0  0  0  0  0  0  0  0  0  0
  -20.7133   15.0164   26.8693 C   0  0  0  0  0  0  0  0  0  0  0  0
  -20.1358   13.9692   26.0286 N   0  0  0  0  0  0  0  0  0  0  0  0
  -18.7459   13.9397   25.6622 C   0  0  0  0  0  0  0  0  0  0  0  0
  -17.9341   14.7259   26.2231 O   0  0  0  0  0  0  0  0  0  0  0  0
  -18.2431   12.9787   24.6513 C   0  0  0  0  0  0  0  0  0  0  0  0
  -17.1250   13.2983   23.8622 C   0  0  0  0  0  0  0  0  0  0  0  0
  -16.6570   12.3945   22.9070 C   0  0  0  0  0  0  0  0  0  0  0  0
  -17.3152   11.1766   22.7380 C   0  0  0  0  0  0  0  0  0  0  0  0
  -18.4041   10.8817   23.4950 N   0  0  0  0  0  0  0  0  0  0  0  0
  -18.8789   11.7426   24.4348 C   0  0  0  0  0  0  0  0  0  0  0  0
  -20.2341   15.8367   29.2668 C   0  0  0  0  0  0  0  0  0  0  0  0
  -19.6056   15.3547   30.3579 N   0  0  0  0  0  0  0  0  0  0  0  0
  -19.3841   14.1131   32.7640 H   0  0  0  0  0  0  0  0  0  0  0  0
  -18.5778   12.5151   33.0103 H   0  0  0  0  0  0  0  0  0  0  0  0
  -20.1479   12.6004   32.1249 H   0  0  0  0  0  0  0  0  0  0  0  0
  -17.4394   13.7677   31.2110 H   0  0  0  0  0  0  0  0  0  0  0  0
  -18.2372   12.3030   30.5325 H   0  0  0  0  0  0  0  0  0  0  0  0
  -19.2585   12.8895   28.3035 H   0  0  0  0  0  0  0  0  0  0  0  0
  -20.4244   16.0090   26.4628 H   0  0  0  0  0  0  0  0  0  0  0  0
  -21.8226   14.9615   26.8825 H   0  0  0  0  0  0  0  0  0  0  0  0
  -20.7524   13.1680   25.7660 H   0  0  0  0  0  0  0  0  0  0  0  0
  -16.6073   14.2407   23.9911 H   0  0  0  0  0  0  0  0  0  0  0  0
  -15.7918   12.6362   22.3034 H   0  0  0  0  0  0  0  0  0  0  0  0
  -16.9638   10.4671   22.0008 H   0  0  0  0  0  0  0  0  0  0  0  0
  -19.7645   11.4660   24.9899 H   0  0  0  0  0  0  0  0  0  0  0  0
  -20.6758   16.8222   29.2014 H   0  0  0  0  0  0  0  0  0  0  0  0
  1  2  1  0
  2  3  1  0
  3  4  1  0
  4  5  2  0
  5  6  1  0
  6  7  1  0
  7  8  1  0
  8  9  2  0
  8 10  1  0
 10 11  2  0
 11 12  1  0
 12 13  2  0
 13 14  1  0
 14 15  2  0
  5 16  1  0
 16 17  2  0
 17  3  1  0
 10 15  1  0
  1 18  1  0
  1 19  1  0
  1 20  1  0
  2 21  1  0
  2 22  1  0
  4 23  1  0
  6 24  1  0
  6 25  1  0
  7 26  1  0
 11 27  1  0
 12 28  1  0
 13 29  1  0
 15 30  1  0
 16 31  1  0
M  END
>  <CHROM.1>  (1) 
-126.49825552,-12.08174818,-69.41033937,151.06548703,-1.81761029,0.45237646
-1.72733388

>  <Name>  (1) 
F367

>  <RI>  (1) 
4.00352e+07

>  <Rbt.Current_Directory>  (1) 
/data/out

>  <Rbt.Executable>  (1) 
rbdock ($Id: //depot/dev/client3/rdock/2013.1/src/exe/rbdock.cxx#4 $)

>  <Rbt.Library>  (1) 
libRbt.so (2013.1, Build901 2013/11/27)

>  <Rbt.Parameter_File>  (1) 
/python_libraries/phenodiscovery/docking/templates/RDOCK_TETHER.conf

>  <Rbt.Receptor>  (1) 
/data/out/rdock-opt/grid/rdock-grid.prm

>  <SCORE>  (1) 
-4.43303

>  <SCORE.INTER>  (1) 
-4.51034

>  <SCORE.INTER.CONST>  (1) 
1

>  <SCORE.INTER.POLAR>  (1) 
0

>  <SCORE.INTER.REPUL>  (1) 
0

>  <SCORE.INTER.ROT>  (1) 
4

>  <SCORE.INTER.VDW>  (1) 
-13.9103

>  <SCORE.INTER.norm>  (1) 
-0.265314

>  <SCORE.INTRA>  (1) 
0.0773035

>  <SCORE.INTRA.DIHEDRAL>  (1) 
0.808299

>  <SCORE.INTRA.DIHEDRAL.0>  (1) 
6.92808

>  <SCORE.INTRA.POLAR>  (1) 
0

>  <SCORE.INTRA.POLAR.0>  (1) 
0

>  <SCORE.INTRA.REPUL>  (1) 
0

>  <SCORE.INTRA.REPUL.0>  (1) 
0

>  <SCORE.INTRA.VDW>  (1) 
-0.326846

>  <SCORE.INTRA.VDW.0>  (1) 
-1.70141

>  <SCORE.INTRA.norm>  (1) 
0.00454727

>  <SCORE.RESTR>  (1) 
0

>  <SCORE.RESTR.CAVITY>  (1) 
0

>  <SCORE.RESTR.norm>  (1) 
0

>  <SCORE.SYSTEM>  (1) 
0

>  <SCORE.SYSTEM.CONST>  (1) 
0

>  <SCORE.SYSTEM.DIHEDRAL>  (1) 
0

>  <SCORE.SYSTEM.norm>  (1) 
0

>  <SCORE.heavy>  (1) 
17

>  <SCORE.norm>  (1) 
-0.260767

>  <TETHERED ATOMS>  (1) 
4,5,6,7,8,9,10,16,3,17

>  <skeledock_score>  (1) 
56

$$$$
