F126
     RDKit          3D

 23 23  0  0  0  0  0  0  0  0999 V2000
  -18.5106   12.8984   32.0518 C   0  0  0  0  0  0  0  0  0  0  0  0
  -17.8559   13.4872   30.7983 C   0  0  0  0  0  0  0  0  0  0  0  0
  -17.3474   12.3770   29.8732 C   0  0  0  0  0  0  0  0  0  0  0  0
  -18.8208   14.3826   30.0687 C   0  0  0  0  0  0  0  0  0  0  0  0
  -19.2599   15.5347   30.6425 N   0  0  0  0  0  0  0  0  0  0  0  0
  -20.1233   16.3549   29.9925 C   0  0  0  0  0  0  0  0  0  0  0  0
  -20.5817   16.0229   28.7163 C   0  0  0  0  0  0  0  0  0  0  0  0
  -21.6069   17.1702   27.8618 Cl  0  0  0  0  0  0  0  0  0  0  0  0
  -20.1348   14.8185   28.1389 C   0  0  0  0  0  0  0  0  0  0  0  0
  -19.2565   14.0404   28.8272 N   0  0  0  0  0  0  0  0  0  0  0  0
  -20.5606   14.3759   26.7983 C   0  0  0  0  0  0  0  0  0  0  0  0
  -21.1350   15.1946   26.0321 O   0  0  0  0  0  0  0  0  0  0  0  0
  -20.2824   13.0555   26.3294 N   0  0  0  0  0  0  0  0  0  0  0  0
  -17.7743   12.2862   32.6149 H   0  0  0  0  0  0  0  0  0  0  0  0
  -19.3766   12.2561   31.7818 H   0  0  0  0  0  0  0  0  0  0  0  0
  -18.8633   13.7157   32.7169 H   0  0  0  0  0  0  0  0  0  0  0  0
  -16.9782   14.0899   31.1226 H   0  0  0  0  0  0  0  0  0  0  0  0
  -18.1826   11.7209   29.5456 H   0  0  0  0  0  0  0  0  0  0  0  0
  -16.8655   12.8203   28.9754 H   0  0  0  0  0  0  0  0  0  0  0  0
  -16.5925   11.7565   30.4015 H   0  0  0  0  0  0  0  0  0  0  0  0
  -20.4412   17.2751   30.4646 H   0  0  0  0  0  0  0  0  0  0  0  0
  -20.6292   12.7477   25.3940 H   0  0  0  0  0  0  0  0  0  0  0  0
  -19.6585   12.4141   26.8670 H   0  0  0  0  0  0  0  0  0  0  0  0
  1  2  1  0
  2  3  1  0
  2  4  1  0
  4  5  2  0
  5  6  1  0
  6  7  2  0
  7  8  1  0
  7  9  1  0
  9 10  2  0
  9 11  1  0
 11 12  2  0
 11 13  1  0
  4 10  1  0
  1 14  1  0
  1 15  1  0
  1 16  1  0
  2 17  1  0
  3 18  1  0
  3 19  1  0
  3 20  1  0
  6 21  1  0
 13 22  1  0
 13 23  1  0
M  END
>  <CHROM.1>  (1) 
65.43517670,13.69240211,0.38637901,-0.91704880,0.90746724

>  <Name>  (1) 
F126

>  <RI>  (1) 
1.35668e+07

>  <Rbt.Current_Directory>  (1) 
/data/out

>  <Rbt.Executable>  (1) 
rbdock ($Id: //depot/dev/client3/rdock/2013.1/src/exe/rbdock.cxx#4 $)

>  <Rbt.Library>  (1) 
libRbt.so (2013.1, Build901 2013/11/27)

>  <Rbt.Parameter_File>  (1) 
/python_libraries/phenodiscovery/docking/templates/RDOCK_TETHER.conf

>  <Rbt.Receptor>  (1) 
/data/out/rdock-opt/grid/rdock-grid.prm

>  <SCORE>  (1) 
6.46002

>  <SCORE.INTER>  (1) 
7.91713

>  <SCORE.INTER.CONST>  (1) 
1

>  <SCORE.INTER.POLAR>  (1) 
0

>  <SCORE.INTER.REPUL>  (1) 
0

>  <SCORE.INTER.ROT>  (1) 
2

>  <SCORE.INTER.VDW>  (1) 
0.517134

>  <SCORE.INTER.norm>  (1) 
0.60901

>  <SCORE.INTRA>  (1) 
-1.45711

>  <SCORE.INTRA.DIHEDRAL>  (1) 
-5.20049

>  <SCORE.INTRA.DIHEDRAL.0>  (1) 
6.57074

>  <SCORE.INTRA.POLAR>  (1) 
0

>  <SCORE.INTRA.POLAR.0>  (1) 
0

>  <SCORE.INTRA.REPUL>  (1) 
0

>  <SCORE.INTRA.REPUL.0>  (1) 
0

>  <SCORE.INTRA.VDW>  (1) 
1.14313

>  <SCORE.INTRA.VDW.0>  (1) 
-1.83845

>  <SCORE.INTRA.norm>  (1) 
-0.112086

>  <SCORE.RESTR>  (1) 
0

>  <SCORE.RESTR.CAVITY>  (1) 
0

>  <SCORE.RESTR.norm>  (1) 
0

>  <SCORE.SYSTEM>  (1) 
0

>  <SCORE.SYSTEM.CONST>  (1) 
0

>  <SCORE.SYSTEM.DIHEDRAL>  (1) 
0

>  <SCORE.SYSTEM.norm>  (1) 
0

>  <SCORE.heavy>  (1) 
13

>  <SCORE.norm>  (1) 
0.496925

>  <TETHERED ATOMS>  (1) 
6,7,9,11,4,10,5,12,8

>  <skeledock_score>  (1) 
45

$$$$
