F740
     RDKit          3D

 26 28  0  0  0  0  0  0  0  0999 V2000
  -19.4166   13.5800   29.1834 O   0  0  0  0  0  0  0  0  0  0  0  0
  -19.9112   14.0293   28.1130 C   0  0  0  0  0  0  0  0  0  0  0  0
  -21.2094   14.6399   28.1382 N   0  0  0  0  0  0  0  0  0  0  0  0
  -22.0864   14.5238   29.2980 C   0  0  0  0  0  0  0  0  0  0  0  0
  -22.9141   15.7704   29.5613 C   0  0  0  0  0  0  0  0  0  0  0  0
  -23.5629   14.5461   28.9398 C   0  0  0  0  0  0  0  0  0  0  0  0
  -19.1448   13.9139   26.8488 C   0  0  0  0  0  0  0  0  0  0  0  0
  -19.3739   14.8117   25.7692 C   0  0  0  0  0  0  0  0  0  0  0  0
  -18.6557   14.6863   24.5660 C   0  0  0  0  0  0  0  0  0  0  0  0
  -17.7279   13.6564   24.4667 C   0  0  0  0  0  0  0  0  0  0  0  0
  -16.9133   13.3318   23.3992 O   0  0  0  0  0  0  0  0  0  0  0  0
  -16.1324   12.1874   23.7708 C   0  0  0  0  0  0  0  0  0  0  0  0
  -16.5439   11.8732   25.1085 O   0  0  0  0  0  0  0  0  0  0  0  0
  -17.5086   12.7883   25.4841 C   0  0  0  0  0  0  0  0  0  0  0  0
  -18.1947   12.8764   26.6918 C   0  0  0  0  0  0  0  0  0  0  0  0
  -21.5021   15.2767   27.3643 H   0  0  0  0  0  0  0  0  0  0  0  0
  -21.7786   13.8894   30.1559 H   0  0  0  0  0  0  0  0  0  0  0  0
  -22.7611   16.6107   28.8504 H   0  0  0  0  0  0  0  0  0  0  0  0
  -23.1756   15.9284   30.6288 H   0  0  0  0  0  0  0  0  0  0  0  0
  -23.7959   14.6584   27.8590 H   0  0  0  0  0  0  0  0  0  0  0  0
  -24.2127   13.9763   29.6369 H   0  0  0  0  0  0  0  0  0  0  0  0
  -20.1204   15.5907   25.8388 H   0  0  0  0  0  0  0  0  0  0  0  0
  -18.8263   15.3638   23.7397 H   0  0  0  0  0  0  0  0  0  0  0  0
  -15.0509   12.4378   23.7515 H   0  0  0  0  0  0  0  0  0  0  0  0
  -16.3519   11.3362   23.0926 H   0  0  0  0  0  0  0  0  0  0  0  0
  -17.9908   12.1656   27.4826 H   0  0  0  0  0  0  0  0  0  0  0  0
  1  2  2  0
  2  3  1  0
  3  4  1  0
  4  5  1  0
  5  6  1  0
  2  7  1  0
  7  8  2  0
  8  9  1  0
  9 10  2  0
 10 11  1  0
 11 12  1  0
 12 13  1  0
 13 14  1  0
 14 15  2  0
  6  4  1  0
  7 15  1  0
 10 14  1  0
  3 16  1  0
  4 17  1  0
  5 18  1  0
  5 19  1  0
  6 20  1  0
  6 21  1  0
  8 22  1  0
  9 23  1  0
 12 24  1  0
 12 25  1  0
 15 26  1  0
M  END
>  <CHROM.1>  (1) 
144.49379511,-155.31210934,0.22295548,0.62364611,-0.86156999

>  <Name>  (1) 
F740

>  <RI>  (1) 
3.35583e+07

>  <Rbt.Current_Directory>  (1) 
/data/out

>  <Rbt.Executable>  (1) 
rbdock ($Id: //depot/dev/client3/rdock/2013.1/src/exe/rbdock.cxx#4 $)

>  <Rbt.Library>  (1) 
libRbt.so (2013.1, Build901 2013/11/27)

>  <Rbt.Parameter_File>  (1) 
/python_libraries/phenodiscovery/docking/templates/RDOCK_TETHER.conf

>  <Rbt.Receptor>  (1) 
/data/out/rdock-opt/grid/rdock-grid.prm

>  <SCORE>  (1) 
2.37586

>  <SCORE.INTER>  (1) 
0.710514

>  <SCORE.INTER.CONST>  (1) 
1

>  <SCORE.INTER.POLAR>  (1) 
0

>  <SCORE.INTER.REPUL>  (1) 
0.0892071

>  <SCORE.INTER.ROT>  (1) 
2

>  <SCORE.INTER.VDW>  (1) 
-7.13552

>  <SCORE.INTER.norm>  (1) 
0.0473676

>  <SCORE.INTRA>  (1) 
1.66535

>  <SCORE.INTRA.DIHEDRAL>  (1) 
1.13134

>  <SCORE.INTRA.DIHEDRAL.0>  (1) 
2.46662

>  <SCORE.INTRA.POLAR>  (1) 
0

>  <SCORE.INTRA.POLAR.0>  (1) 
0

>  <SCORE.INTRA.REPUL>  (1) 
0

>  <SCORE.INTRA.REPUL.0>  (1) 
0

>  <SCORE.INTRA.VDW>  (1) 
1.09968

>  <SCORE.INTRA.VDW.0>  (1) 
-1.42055

>  <SCORE.INTRA.norm>  (1) 
0.111023

>  <SCORE.RESTR>  (1) 
0

>  <SCORE.RESTR.CAVITY>  (1) 
0

>  <SCORE.RESTR.norm>  (1) 
0

>  <SCORE.SYSTEM>  (1) 
0

>  <SCORE.SYSTEM.CONST>  (1) 
0

>  <SCORE.SYSTEM.DIHEDRAL>  (1) 
0

>  <SCORE.SYSTEM.norm>  (1) 
0

>  <SCORE.heavy>  (1) 
15

>  <SCORE.norm>  (1) 
0.158391

>  <TETHERED ATOMS>  (1) 
8,7,15,14,2,3,4,6,5

>  <skeledock_score>  (1) 
45

$$$$
