F362
     RDKit          3D

 30 31  0  0  0  0  0  0  0  0999 V2000
  -20.4388   13.1016   24.8271 C   0  0  0  0  0  0  0  0  0  0  0  0
  -19.2282   13.1315   25.7568 C   0  0  0  0  0  0  0  0  0  0  0  0
  -19.1658   14.3609   26.5739 N   0  0  0  0  0  0  0  0  0  0  0  0
  -18.7470   15.6216   25.9413 C   0  0  0  0  0  0  0  0  0  0  0  0
  -17.5710   16.2555   26.6886 C   0  0  0  0  0  0  0  0  0  0  0  0
  -19.1613   14.2631   28.0239 C   0  0  0  0  0  0  0  0  0  0  0  0
  -18.3575   13.3127   28.6918 C   0  0  0  0  0  0  0  0  0  0  0  0
  -18.3551   13.2768   30.1020 C   0  0  0  0  0  0  0  0  0  0  0  0
  -17.4985   12.2885   30.8249 C   0  0  0  0  0  0  0  0  0  0  0  0
  -19.0903   14.1789   30.8135 N   0  0  0  0  0  0  0  0  0  0  0  0
  -19.8345   15.0889   30.1461 C   0  0  0  0  0  0  0  0  0  0  0  0
  -20.5979   16.0369   30.7147 N   0  0  0  0  0  0  0  0  0  0  0  0
  -21.1087   16.6497   29.6161 C   0  0  0  0  0  0  0  0  0  0  0  0
  -20.6777   16.1031   28.4549 N   0  0  0  0  0  0  0  0  0  0  0  0
  -19.8713   15.1234   28.8122 N   0  0  0  0  0  0  0  0  0  0  0  0
  -20.3257   13.8428   24.0094 H   0  0  0  0  0  0  0  0  0  0  0  0
  -21.3681   13.3057   25.3998 H   0  0  0  0  0  0  0  0  0  0  0  0
  -20.5240   12.0960   24.3638 H   0  0  0  0  0  0  0  0  0  0  0  0
  -18.2997   13.0417   25.1526 H   0  0  0  0  0  0  0  0  0  0  0  0
  -19.3081   12.2368   26.4109 H   0  0  0  0  0  0  0  0  0  0  0  0
  -18.4699   15.4469   24.8786 H   0  0  0  0  0  0  0  0  0  0  0  0
  -19.5946   16.3406   25.9147 H   0  0  0  0  0  0  0  0  0  0  0  0
  -16.9569   16.8537   25.9828 H   0  0  0  0  0  0  0  0  0  0  0  0
  -16.9275   15.4899   27.1684 H   0  0  0  0  0  0  0  0  0  0  0  0
  -17.9388   16.9390   27.4810 H   0  0  0  0  0  0  0  0  0  0  0  0
  -17.7196   12.6312   28.1444 H   0  0  0  0  0  0  0  0  0  0  0  0
  -16.4315   12.5777   30.7240 H   0  0  0  0  0  0  0  0  0  0  0  0
  -17.7632   12.2596   31.9032 H   0  0  0  0  0  0  0  0  0  0  0  0
  -17.6451   11.2737   30.3983 H   0  0  0  0  0  0  0  0  0  0  0  0
  -21.7910   17.4875   29.6634 H   0  0  0  0  0  0  0  0  0  0  0  0
  1  2  1  0
  2  3  1  0
  3  4  1  0
  4  5  1  0
  3  6  1  0
  6  7  2  0
  7  8  1  0
  8  9  1  0
  8 10  2  0
 10 11  1  0
 11 12  2  0
 12 13  1  0
 13 14  2  0
 14 15  1  0
 15  6  1  0
 15 11  1  0
  1 16  1  0
  1 17  1  0
  1 18  1  0
  2 19  1  0
  2 20  1  0
  4 21  1  0
  4 22  1  0
  5 23  1  0
  5 24  1  0
  5 25  1  0
  7 26  1  0
  9 27  1  0
  9 28  1  0
  9 29  1  0
 13 30  1  0
M  END
>  <CHROM.1>  (1) 
-75.06089130,-125.28249417,44.26676433,-1.49896025,-1.00350779,1.54391720

>  <Name>  (1) 
F362

>  <RI>  (1) 
1.62374e+07

>  <Rbt.Current_Directory>  (1) 
/data/out

>  <Rbt.Executable>  (1) 
rbdock ($Id: //depot/dev/client3/rdock/2013.1/src/exe/rbdock.cxx#4 $)

>  <Rbt.Library>  (1) 
libRbt.so (2013.1, Build901 2013/11/27)

>  <Rbt.Parameter_File>  (1) 
/python_libraries/phenodiscovery/docking/templates/RDOCK_TETHER.conf

>  <Rbt.Receptor>  (1) 
/data/out/rdock-opt/grid/rdock-grid.prm

>  <SCORE>  (1) 
-1.39064

>  <SCORE.INTER>  (1) 
-1.6975

>  <SCORE.INTER.CONST>  (1) 
1

>  <SCORE.INTER.POLAR>  (1) 
0

>  <SCORE.INTER.REPUL>  (1) 
0

>  <SCORE.INTER.ROT>  (1) 
3

>  <SCORE.INTER.VDW>  (1) 
-10.0975

>  <SCORE.INTER.norm>  (1) 
-0.113166

>  <SCORE.INTRA>  (1) 
0.306855

>  <SCORE.INTRA.DIHEDRAL>  (1) 
3.08127

>  <SCORE.INTRA.DIHEDRAL.0>  (1) 
8.39152

>  <SCORE.INTRA.POLAR>  (1) 
0

>  <SCORE.INTRA.POLAR.0>  (1) 
0

>  <SCORE.INTRA.REPUL>  (1) 
0

>  <SCORE.INTRA.REPUL.0>  (1) 
0

>  <SCORE.INTRA.VDW>  (1) 
-1.23378

>  <SCORE.INTRA.VDW.0>  (1) 
-0.465637

>  <SCORE.INTRA.norm>  (1) 
0.020457

>  <SCORE.RESTR>  (1) 
0

>  <SCORE.RESTR.CAVITY>  (1) 
0

>  <SCORE.RESTR.norm>  (1) 
0

>  <SCORE.SYSTEM>  (1) 
0

>  <SCORE.SYSTEM.CONST>  (1) 
0

>  <SCORE.SYSTEM.DIHEDRAL>  (1) 
0

>  <SCORE.SYSTEM.norm>  (1) 
0

>  <SCORE.heavy>  (1) 
15

>  <SCORE.norm>  (1) 
-0.0927095

>  <TETHERED ATOMS>  (1) 
1,2,3,4,5,8,10,11,12,9,13,14

>  <skeledock_score>  (1) 
52

$$$$
