F741
     RDKit          3D

 25 27  0  0  0  0  0  0  0  0999 V2000
  -20.7166   12.9707   29.9497 O   0  0  0  0  0  0  0  0  0  0  0  0
  -20.6493   13.8020   29.0041 C   0  0  0  0  0  0  0  0  0  0  0  0
  -21.7597   14.6650   28.7370 N   0  0  0  0  0  0  0  0  0  0  0  0
  -23.1099   14.3037   29.1506 C   0  0  0  0  0  0  0  0  0  0  0  0
  -23.4215   12.8335   28.9207 C   0  0  0  0  0  0  0  0  0  0  0  0
  -24.0138   13.8897   28.0029 C   0  0  0  0  0  0  0  0  0  0  0  0
  -19.4364   13.8482   28.1712 C   0  0  0  0  0  0  0  0  0  0  0  0
  -18.1553   13.4339   28.5321 C   0  0  0  0  0  0  0  0  0  0  0  0
  -17.3164   13.5389   27.4730 N   0  0  0  0  0  0  0  0  0  0  0  0
  -18.0328   14.0013   26.4639 N   0  0  0  0  0  0  0  0  0  0  0  0
  -17.6066   14.2319   25.1990 C   0  0  0  0  0  0  0  0  0  0  0  0
  -18.5441   14.6949   24.2664 C   0  0  0  0  0  0  0  0  0  0  0  0
  -19.8758   14.8898   24.6832 C   0  0  0  0  0  0  0  0  0  0  0  0
  -20.2426   14.6310   25.9724 N   0  0  0  0  0  0  0  0  0  0  0  0
  -19.2995   14.1962   26.8444 C   0  0  0  0  0  0  0  0  0  0  0  0
  -21.6090   15.5791   28.2561 H   0  0  0  0  0  0  0  0  0  0  0  0
  -23.5509   14.7747   30.0543 H   0  0  0  0  0  0  0  0  0  0  0  0
  -24.1510   12.4000   29.6369 H   0  0  0  0  0  0  0  0  0  0  0  0
  -22.6141   12.2321   28.4500 H   0  0  0  0  0  0  0  0  0  0  0  0
  -23.5537   13.9201   26.9917 H   0  0  0  0  0  0  0  0  0  0  0  0
  -25.0922   14.0883   28.1769 H   0  0  0  0  0  0  0  0  0  0  0  0
  -17.8567   13.0623   29.5033 H   0  0  0  0  0  0  0  0  0  0  0  0
  -16.5755   14.0600   24.9172 H   0  0  0  0  0  0  0  0  0  0  0  0
  -18.2516   14.8944   23.2438 H   0  0  0  0  0  0  0  0  0  0  0  0
  -20.6156   15.2412   23.9765 H   0  0  0  0  0  0  0  0  0  0  0  0
  1  2  2  0
  2  3  1  0
  3  4  1  0
  4  5  1  0
  5  6  1  0
  2  7  1  0
  7  8  1  0
  8  9  2  0
  9 10  1  0
 10 11  1  0
 11 12  2  0
 12 13  1  0
 13 14  2  0
 14 15  1  0
  6  4  1  0
  7 15  2  0
 15 10  1  0
  3 16  1  0
  4 17  1  0
  5 18  1  0
  5 19  1  0
  6 20  1  0
  6 21  1  0
  8 22  1  0
 11 23  1  0
 12 24  1  0
 13 25  1  0
M  END
>  <CHROM.1>  (1) 
-41.08502718,-24.29775976,-2.56314914,0.08533918,-1.30410758

>  <Name>  (1) 
F741

>  <RI>  (1) 
2.10819e+07

>  <Rbt.Current_Directory>  (1) 
/data/out

>  <Rbt.Executable>  (1) 
rbdock ($Id: //depot/dev/client3/rdock/2013.1/src/exe/rbdock.cxx#4 $)

>  <Rbt.Library>  (1) 
libRbt.so (2013.1, Build901 2013/11/27)

>  <Rbt.Parameter_File>  (1) 
/python_libraries/phenodiscovery/docking/templates/RDOCK_TETHER.conf

>  <Rbt.Receptor>  (1) 
/data/out/rdock-opt/grid/rdock-grid.prm

>  <SCORE>  (1) 
0.796357

>  <SCORE.INTER>  (1) 
-0.92958

>  <SCORE.INTER.CONST>  (1) 
1

>  <SCORE.INTER.POLAR>  (1) 
0

>  <SCORE.INTER.REPUL>  (1) 
0

>  <SCORE.INTER.ROT>  (1) 
2

>  <SCORE.INTER.VDW>  (1) 
-8.32958

>  <SCORE.INTER.norm>  (1) 
-0.061972

>  <SCORE.INTRA>  (1) 
1.72594

>  <SCORE.INTRA.DIHEDRAL>  (1) 
1.92612

>  <SCORE.INTRA.DIHEDRAL.0>  (1) 
1.54977

>  <SCORE.INTRA.POLAR>  (1) 
0.000376009

>  <SCORE.INTRA.POLAR.0>  (1) 
-0.000376009

>  <SCORE.INTRA.REPUL>  (1) 
0

>  <SCORE.INTRA.REPUL.0>  (1) 
0

>  <SCORE.INTRA.VDW>  (1) 
0.761598

>  <SCORE.INTRA.VDW.0>  (1) 
-1.95939

>  <SCORE.INTRA.norm>  (1) 
0.115062

>  <SCORE.RESTR>  (1) 
0

>  <SCORE.RESTR.CAVITY>  (1) 
0

>  <SCORE.RESTR.norm>  (1) 
0

>  <SCORE.SYSTEM>  (1) 
0

>  <SCORE.SYSTEM.CONST>  (1) 
0

>  <SCORE.SYSTEM.DIHEDRAL>  (1) 
0

>  <SCORE.SYSTEM.norm>  (1) 
0

>  <SCORE.heavy>  (1) 
15

>  <SCORE.norm>  (1) 
0.0530905

>  <TETHERED ATOMS>  (1) 
3,2,7,9,4,6,5,10,11,12,13,14

>  <skeledock_score>  (1) 
48

$$$$
