F179
     RDKit          3D

 29 30  0  0  0  0  0  0  0  0999 V2000
  -18.2307   15.4359   26.3100 C   0  0  0  0  0  0  0  0  0  0  0  0
  -18.6539   15.8599   27.7203 C   0  0  0  0  0  0  0  0  0  0  0  0
  -19.0138   17.2174   27.7398 O   0  0  0  0  0  0  0  0  0  0  0  0
  -19.7701   15.0138   28.2795 C   0  0  0  0  0  0  0  0  0  0  0  0
  -19.6976   13.8051   28.9530 C   0  0  0  0  0  0  0  0  0  0  0  0
  -20.9330   13.4462   29.3517 N   0  0  0  0  0  0  0  0  0  0  0  0
  -21.7804   14.3752   28.9357 N   0  0  0  0  0  0  0  0  0  0  0  0
  -21.1052   15.3462   28.2859 C   0  0  0  0  0  0  0  0  0  0  0  0
  -23.1961   14.3938   29.3229 C   0  0  0  0  0  0  0  0  0  0  0  0
  -23.4007   13.9421   30.7709 C   0  0  0  0  0  0  0  0  0  0  0  0
  -23.8528   12.4824   30.7202 C   0  0  0  0  0  0  0  0  0  0  0  0
  -24.0025   12.1074   29.2486 C   0  0  0  0  0  0  0  0  0  0  0  0
  -23.9923   13.4124   28.4717 C   0  0  0  0  0  0  0  0  0  0  0  0
  -19.0693   15.5623   25.5925 H   0  0  0  0  0  0  0  0  0  0  0  0
  -17.9046   14.3737   26.3094 H   0  0  0  0  0  0  0  0  0  0  0  0
  -17.3793   16.0635   25.9710 H   0  0  0  0  0  0  0  0  0  0  0  0
  -17.7704   15.7301   28.3819 H   0  0  0  0  0  0  0  0  0  0  0  0
  -18.2308   17.7382   27.4189 H   0  0  0  0  0  0  0  0  0  0  0  0
  -18.8046   13.2334   29.1662 H   0  0  0  0  0  0  0  0  0  0  0  0
  -21.5393   16.2500   27.8802 H   0  0  0  0  0  0  0  0  0  0  0  0
  -23.5964   15.4240   29.1892 H   0  0  0  0  0  0  0  0  0  0  0  0
  -24.1994   14.5585   31.2400 H   0  0  0  0  0  0  0  0  0  0  0  0
  -22.4769   14.0589   31.3787 H   0  0  0  0  0  0  0  0  0  0  0  0
  -23.1062   11.8226   31.2136 H   0  0  0  0  0  0  0  0  0  0  0  0
  -24.8275   12.3679   31.2437 H   0  0  0  0  0  0  0  0  0  0  0  0
  -24.9457   11.5467   29.0703 H   0  0  0  0  0  0  0  0  0  0  0  0
  -23.1469   11.4736   28.9285 H   0  0  0  0  0  0  0  0  0  0  0  0
  -23.5533   13.2799   27.4585 H   0  0  0  0  0  0  0  0  0  0  0  0
  -25.0361   13.7823   28.3634 H   0  0  0  0  0  0  0  0  0  0  0  0
  1  2  1  0
  2  3  1  0
  2  4  1  0
  4  5  1  0
  5  6  2  0
  6  7  1  0
  7  8  1  0
  7  9  1  0
  9 10  1  0
 10 11  1  0
 11 12  1  0
 12 13  1  0
  4  8  2  0
 13  9  1  0
  1 14  1  0
  1 15  1  0
  1 16  1  0
  2 17  1  0
  3 18  1  0
  5 19  1  0
  8 20  1  0
  9 21  1  0
 10 22  1  0
 10 23  1  0
 11 24  1  0
 11 25  1  0
 12 26  1  0
 12 27  1  0
 13 28  1  0
 13 29  1  0
M  END
>  <CHROM.1>  (1) 
-57.86127501,85.59297266,36.94101438,-0.14143615,-0.52375764,-2.48833174

>  <Name>  (1) 
F179

>  <RI>  (1) 
3.64346e+07

>  <Rbt.Current_Directory>  (1) 
/data/out

>  <Rbt.Executable>  (1) 
rbdock ($Id: //depot/dev/client3/rdock/2013.1/src/exe/rbdock.cxx#4 $)

>  <Rbt.Library>  (1) 
libRbt.so (2013.1, Build901 2013/11/27)

>  <Rbt.Parameter_File>  (1) 
/python_libraries/phenodiscovery/docking/templates/RDOCK_TETHER.conf

>  <Rbt.Receptor>  (1) 
/data/out/rdock-opt/grid/rdock-grid.prm

>  <SCORE>  (1) 
-2.8978

>  <SCORE.INTER>  (1) 
-2.45841

>  <SCORE.INTER.CONST>  (1) 
1

>  <SCORE.INTER.POLAR>  (1) 
0

>  <SCORE.INTER.REPUL>  (1) 
0

>  <SCORE.INTER.ROT>  (1) 
2

>  <SCORE.INTER.VDW>  (1) 
-9.85841

>  <SCORE.INTER.norm>  (1) 
-0.189108

>  <SCORE.INTRA>  (1) 
-0.439388

>  <SCORE.INTRA.DIHEDRAL>  (1) 
-0.997888

>  <SCORE.INTRA.DIHEDRAL.0>  (1) 
3.90774

>  <SCORE.INTRA.POLAR>  (1) 
0

>  <SCORE.INTRA.POLAR.0>  (1) 
0

>  <SCORE.INTRA.REPUL>  (1) 
0

>  <SCORE.INTRA.REPUL.0>  (1) 
0

>  <SCORE.INTRA.VDW>  (1) 
0.0595564

>  <SCORE.INTRA.VDW.0>  (1) 
-2.23835

>  <SCORE.INTRA.norm>  (1) 
-0.0337991

>  <SCORE.RESTR>  (1) 
0

>  <SCORE.RESTR.CAVITY>  (1) 
0

>  <SCORE.RESTR.norm>  (1) 
0

>  <SCORE.SYSTEM>  (1) 
0

>  <SCORE.SYSTEM.CONST>  (1) 
0

>  <SCORE.SYSTEM.DIHEDRAL>  (1) 
0

>  <SCORE.SYSTEM.norm>  (1) 
0

>  <SCORE.heavy>  (1) 
13

>  <SCORE.norm>  (1) 
-0.222907

>  <TETHERED ATOMS>  (1) 
1,2,4,8,7,9,13,12

>  <skeledock_score>  (1) 
37

$$$$
