F763
     RDKit          3D

 19 19  0  0  0  0  0  0  0  0999 V2000
  -18.7328   12.5273   25.5330 O   0  0  0  0  0  0  0  0  0  0  0  0
  -18.7106   13.7110   25.9687 C   0  0  0  0  0  0  0  0  0  0  0  0
  -19.8130   14.2553   26.5836 N   0  0  0  0  0  0  0  0  0  0  0  0
  -21.0601   13.4854   26.7329 C   0  0  0  0  0  0  0  0  0  0  0  0
  -21.3333   13.1708   28.2037 C   0  0  0  0  0  0  0  0  0  0  0  0
  -22.5366   12.4655   28.3292 O   0  0  0  0  0  0  0  0  0  0  0  0
  -19.7813   15.5476   27.0351 C   0  0  0  0  0  0  0  0  0  0  0  0
  -18.6317   16.3262   26.8932 C   0  0  0  0  0  0  0  0  0  0  0  0
  -17.5067   15.7806   26.2798 C   0  0  0  0  0  0  0  0  0  0  0  0
  -15.9232   16.8282   26.0736 Br  0  0  0  0  0  0  0  0  0  0  0  0
  -17.5434   14.4670   25.8147 C   0  0  0  0  0  0  0  0  0  0  0  0
  -21.9248   14.0348   26.3004 H   0  0  0  0  0  0  0  0  0  0  0  0
  -20.9881   12.5299   26.1670 H   0  0  0  0  0  0  0  0  0  0  0  0
  -20.4967   12.5546   28.6018 H   0  0  0  0  0  0  0  0  0  0  0  0
  -21.3852   14.1187   28.7848 H   0  0  0  0  0  0  0  0  0  0  0  0
  -22.4625   11.6852   27.7205 H   0  0  0  0  0  0  0  0  0  0  0  0
  -20.6524   15.9873   27.5070 H   0  0  0  0  0  0  0  0  0  0  0  0
  -18.6191   17.3461   27.2556 H   0  0  0  0  0  0  0  0  0  0  0  0
  -16.6733   14.0377   25.3330 H   0  0  0  0  0  0  0  0  0  0  0  0
  1  2  2  0
  2  3  1  0
  3  4  1  0
  4  5  1  0
  5  6  1  0
  3  7  1  0
  7  8  2  0
  8  9  1  0
  9 10  1  0
  9 11  2  0
 11  2  1  0
  4 12  1  0
  4 13  1  0
  5 14  1  0
  5 15  1  0
  6 16  1  0
  7 17  1  0
  8 18  1  0
 11 19  1  0
M  END
>  <CHROM.1>  (1) 
112.65106845,178.67424978,53.50326575,-2.65211898,0.33174520,0.35378546

>  <Name>  (1) 
F763

>  <RI>  (1) 
2.52256e+07

>  <Rbt.Current_Directory>  (1) 
/data/out

>  <Rbt.Executable>  (1) 
rbdock ($Id: //depot/dev/client3/rdock/2013.1/src/exe/rbdock.cxx#4 $)

>  <Rbt.Library>  (1) 
libRbt.so (2013.1, Build901 2013/11/27)

>  <Rbt.Parameter_File>  (1) 
/python_libraries/phenodiscovery/docking/templates/RDOCK_TETHER.conf

>  <Rbt.Receptor>  (1) 
/data/out/rdock-opt/grid/rdock-grid.prm

>  <SCORE>  (1) 
3.49736

>  <SCORE.INTER>  (1) 
2.53526

>  <SCORE.INTER.CONST>  (1) 
1

>  <SCORE.INTER.POLAR>  (1) 
-0.860303

>  <SCORE.INTER.REPUL>  (1) 
0

>  <SCORE.INTER.ROT>  (1) 
2

>  <SCORE.INTER.VDW>  (1) 
-1.93971

>  <SCORE.INTER.norm>  (1) 
0.230478

>  <SCORE.INTRA>  (1) 
0.962102

>  <SCORE.INTRA.DIHEDRAL>  (1) 
0.00274096

>  <SCORE.INTRA.DIHEDRAL.0>  (1) 
2.56704

>  <SCORE.INTRA.POLAR>  (1) 
0

>  <SCORE.INTRA.POLAR.0>  (1) 
0

>  <SCORE.INTRA.REPUL>  (1) 
0

>  <SCORE.INTRA.REPUL.0>  (1) 
0

>  <SCORE.INTRA.VDW>  (1) 
0.960732

>  <SCORE.INTRA.VDW.0>  (1) 
0.0486936

>  <SCORE.INTRA.norm>  (1) 
0.0874638

>  <SCORE.RESTR>  (1) 
0

>  <SCORE.RESTR.CAVITY>  (1) 
0

>  <SCORE.RESTR.norm>  (1) 
0

>  <SCORE.SYSTEM>  (1) 
0

>  <SCORE.SYSTEM.CONST>  (1) 
0

>  <SCORE.SYSTEM.DIHEDRAL>  (1) 
0

>  <SCORE.SYSTEM.norm>  (1) 
0

>  <SCORE.heavy>  (1) 
11

>  <SCORE.norm>  (1) 
0.317942

>  <TETHERED ATOMS>  (1) 
1,2,3,4,11,9,7

>  <skeledock_score>  (1) 
42

$$$$
