F687
     RDKit          3D

 24 25  0  0  0  0  0  0  0  0999 V2000
  -20.2853   14.9905   24.8503 F   0  0  0  0  0  0  0  0  0  0  0  0
  -19.6651   14.7829   26.0393 C   0  0  0  0  0  0  0  0  0  0  0  0
  -19.7033   15.7880   27.0108 C   0  0  0  0  0  0  0  0  0  0  0  0
  -19.0653   15.6026   28.2385 C   0  0  0  0  0  0  0  0  0  0  0  0
  -18.3873   14.4107   28.4990 C   0  0  0  0  0  0  0  0  0  0  0  0
  -18.3394   13.4037   27.5302 C   0  0  0  0  0  0  0  0  0  0  0  0
  -18.9774   13.5797   26.2853 C   0  0  0  0  0  0  0  0  0  0  0  0
  -18.9307   12.5685   25.2582 N   0  0  0  0  0  0  0  0  0  0  0  0
  -17.8781   11.5606   25.1397 C   0  0  0  0  0  0  0  0  0  0  0  0
  -17.4601   11.4047   23.7136 C   0  0  0  0  0  0  0  0  0  0  0  0
  -16.2459   11.7906   23.1778 C   0  0  0  0  0  0  0  0  0  0  0  0
  -16.3297   11.4260   21.8513 C   0  0  0  0  0  0  0  0  0  0  0  0
  -17.5280   10.8549   21.6354 N   0  0  0  0  0  0  0  0  0  0  0  0
  -18.2224   10.8338   22.7611 N   0  0  0  0  0  0  0  0  0  0  0  0
  -20.2287   16.7132   26.8119 H   0  0  0  0  0  0  0  0  0  0  0  0
  -19.0978   16.3821   28.9888 H   0  0  0  0  0  0  0  0  0  0  0  0
  -17.8936   14.2680   29.4516 H   0  0  0  0  0  0  0  0  0  0  0  0
  -17.7990   12.4978   27.7605 H   0  0  0  0  0  0  0  0  0  0  0  0
  -19.6229   12.6147   24.4765 H   0  0  0  0  0  0  0  0  0  0  0  0
  -16.9927   11.8839   25.7281 H   0  0  0  0  0  0  0  0  0  0  0  0
  -18.2244   10.5922   25.5604 H   0  0  0  0  0  0  0  0  0  0  0  0
  -15.4175   12.2695   23.6825 H   0  0  0  0  0  0  0  0  0  0  0  0
  -15.5679   11.5651   21.0957 H   0  0  0  0  0  0  0  0  0  0  0  0
  -17.8732   10.4778   20.7254 H   0  0  0  0  0  0  0  0  0  0  0  0
  1  2  1  0
  2  3  2  0
  3  4  1  0
  4  5  2  0
  5  6  1  0
  6  7  2  0
  7  8  1  0
  8  9  1  0
  9 10  1  0
 10 11  1  0
 11 12  2  0
 12 13  1  0
 13 14  1  0
  2  7  1  0
 10 14  2  0
  3 15  1  0
  4 16  1  0
  5 17  1  0
  6 18  1  0
  8 19  1  0
  9 20  1  0
  9 21  1  0
 11 22  1  0
 12 23  1  0
 13 24  1  0
M  END
>  <CHROM.1>  (1) 
154.61814496,-136.85079414,110.50385597,2.02136713,-0.90195395,1.07105764

>  <Name>  (1) 
F687

>  <RI>  (1) 
4.18697e+07

>  <Rbt.Current_Directory>  (1) 
/data/out

>  <Rbt.Executable>  (1) 
rbdock ($Id: //depot/dev/client3/rdock/2013.1/src/exe/rbdock.cxx#4 $)

>  <Rbt.Library>  (1) 
libRbt.so (2013.1, Build901 2013/11/27)

>  <Rbt.Parameter_File>  (1) 
/python_libraries/phenodiscovery/docking/templates/RDOCK_TETHER.conf

>  <Rbt.Receptor>  (1) 
/data/out/rdock-opt/grid/rdock-grid.prm

>  <SCORE>  (1) 
-7.34926

>  <SCORE.INTER>  (1) 
-8.1747

>  <SCORE.INTER.CONST>  (1) 
1

>  <SCORE.INTER.POLAR>  (1) 
-1.0198

>  <SCORE.INTER.REPUL>  (1) 
0

>  <SCORE.INTER.ROT>  (1) 
3

>  <SCORE.INTER.VDW>  (1) 
-13.1074

>  <SCORE.INTER.norm>  (1) 
-0.583907

>  <SCORE.INTRA>  (1) 
0.825439

>  <SCORE.INTRA.DIHEDRAL>  (1) 
-0.786695

>  <SCORE.INTRA.DIHEDRAL.0>  (1) 
4.83383

>  <SCORE.INTRA.POLAR>  (1) 
0

>  <SCORE.INTRA.POLAR.0>  (1) 
0

>  <SCORE.INTRA.REPUL>  (1) 
0

>  <SCORE.INTRA.REPUL.0>  (1) 
0

>  <SCORE.INTRA.VDW>  (1) 
1.21879

>  <SCORE.INTRA.VDW.0>  (1) 
-1.42965

>  <SCORE.INTRA.norm>  (1) 
0.05896

>  <SCORE.RESTR>  (1) 
0

>  <SCORE.RESTR.CAVITY>  (1) 
0

>  <SCORE.RESTR.norm>  (1) 
0

>  <SCORE.SYSTEM>  (1) 
0

>  <SCORE.SYSTEM.CONST>  (1) 
0

>  <SCORE.SYSTEM.DIHEDRAL>  (1) 
0

>  <SCORE.SYSTEM.norm>  (1) 
0

>  <SCORE.heavy>  (1) 
14

>  <SCORE.norm>  (1) 
-0.524947

>  <TETHERED ATOMS>  (1) 
3,2,7,8,4,5,6,9,1,10

>  <skeledock_score>  (1) 
57

$$$$
