F179
     RDKit          3D

 29 30  0  0  0  0  0  0  0  0999 V2000
  -19.9795   11.7072   25.0640 C   0  0  0  0  0  0  0  0  0  0  0  0
  -19.1604   12.9817   25.2769 C   0  0  0  0  0  0  0  0  0  0  0  0
  -19.6906   13.9996   24.4696 O   0  0  0  0  0  0  0  0  0  0  0  0
  -19.1483   13.4330   26.7174 C   0  0  0  0  0  0  0  0  0  0  0  0
  -18.5869   12.7501   27.7814 C   0  0  0  0  0  0  0  0  0  0  0  0
  -18.7545   13.4655   28.9106 N   0  0  0  0  0  0  0  0  0  0  0  0
  -19.4214   14.5664   28.5948 N   0  0  0  0  0  0  0  0  0  0  0  0
  -19.6654   14.5891   27.2713 C   0  0  0  0  0  0  0  0  0  0  0  0
  -19.7353   15.6506   29.5301 C   0  0  0  0  0  0  0  0  0  0  0  0
  -18.9400   15.5222   30.8191 C   0  0  0  0  0  0  0  0  0  0  0  0
  -19.7772   16.2182   31.8849 C   0  0  0  0  0  0  0  0  0  0  0  0
  -21.1998   16.3270   31.3318 C   0  0  0  0  0  0  0  0  0  0  0  0
  -21.1949   15.6504   29.9663 C   0  0  0  0  0  0  0  0  0  0  0  0
  -19.5675   10.8767   25.6763 H   0  0  0  0  0  0  0  0  0  0  0  0
  -19.9342   11.4076   23.9954 H   0  0  0  0  0  0  0  0  0  0  0  0
  -21.0429   11.8766   25.3382 H   0  0  0  0  0  0  0  0  0  0  0  0
  -18.1113   12.7604   24.9708 H   0  0  0  0  0  0  0  0  0  0  0  0
  -19.1108   14.7968   24.5897 H   0  0  0  0  0  0  0  0  0  0  0  0
  -18.0773   11.7970   27.7351 H   0  0  0  0  0  0  0  0  0  0  0  0
  -20.1695   15.3942   26.7522 H   0  0  0  0  0  0  0  0  0  0  0  0
  -19.5072   16.6356   29.0608 H   0  0  0  0  0  0  0  0  0  0  0  0
  -17.9371   15.9914   30.7196 H   0  0  0  0  0  0  0  0  0  0  0  0
  -18.8149   14.4503   31.0914 H   0  0  0  0  0  0  0  0  0  0  0  0
  -19.3696   17.2337   32.0840 H   0  0  0  0  0  0  0  0  0  0  0  0
  -19.7641   15.6358   32.8321 H   0  0  0  0  0  0  0  0  0  0  0  0
  -21.9307   15.8359   32.0109 H   0  0  0  0  0  0  0  0  0  0  0  0
  -21.4796   17.3978   31.2194 H   0  0  0  0  0  0  0  0  0  0  0  0
  -21.8320   16.1987   29.2388 H   0  0  0  0  0  0  0  0  0  0  0  0
  -21.5798   14.6131   30.0774 H   0  0  0  0  0  0  0  0  0  0  0  0
  1  2  1  0
  2  3  1  0
  2  4  1  0
  4  5  1  0
  5  6  2  0
  6  7  1  0
  7  8  1  0
  7  9  1  0
  9 10  1  0
 10 11  1  0
 11 12  1  0
 12 13  1  0
  4  8  2  0
 13  9  1  0
  1 14  1  0
  1 15  1  0
  1 16  1  0
  2 17  1  0
  3 18  1  0
  5 19  1  0
  8 20  1  0
  9 21  1  0
 10 22  1  0
 10 23  1  0
 11 24  1  0
 11 25  1  0
 12 26  1  0
 12 27  1  0
 13 28  1  0
 13 29  1  0
M  END
>  <CHROM.1>  (1) 
-176.91967499,65.02368534,13.10531255,-3.02698459,1.54738961,2.58438807

>  <Name>  (1) 
F179

>  <RI>  (1) 
1.39312e+07

>  <Rbt.Current_Directory>  (1) 
/data/out

>  <Rbt.Executable>  (1) 
rbdock ($Id: //depot/dev/client3/rdock/2013.1/src/exe/rbdock.cxx#4 $)

>  <Rbt.Library>  (1) 
libRbt.so (2013.1, Build901 2013/11/27)

>  <Rbt.Parameter_File>  (1) 
/python_libraries/phenodiscovery/docking/templates/RDOCK_TETHER.conf

>  <Rbt.Receptor>  (1) 
/data/out/rdock-opt/grid/rdock-grid.prm

>  <SCORE>  (1) 
-3.02422

>  <SCORE.INTER>  (1) 
-1.74349

>  <SCORE.INTER.CONST>  (1) 
1

>  <SCORE.INTER.POLAR>  (1) 
0

>  <SCORE.INTER.REPUL>  (1) 
0

>  <SCORE.INTER.ROT>  (1) 
2

>  <SCORE.INTER.VDW>  (1) 
-9.14349

>  <SCORE.INTER.norm>  (1) 
-0.134115

>  <SCORE.INTRA>  (1) 
-1.28073

>  <SCORE.INTRA.DIHEDRAL>  (1) 
-2.58072

>  <SCORE.INTRA.DIHEDRAL.0>  (1) 
5.75386

>  <SCORE.INTRA.POLAR>  (1) 
0

>  <SCORE.INTRA.POLAR.0>  (1) 
0

>  <SCORE.INTRA.REPUL>  (1) 
0

>  <SCORE.INTRA.REPUL.0>  (1) 
0

>  <SCORE.INTRA.VDW>  (1) 
0.00963314

>  <SCORE.INTRA.VDW.0>  (1) 
-1.53352

>  <SCORE.INTRA.norm>  (1) 
-0.0985176

>  <SCORE.RESTR>  (1) 
0

>  <SCORE.RESTR.CAVITY>  (1) 
0

>  <SCORE.RESTR.norm>  (1) 
0

>  <SCORE.SYSTEM>  (1) 
0

>  <SCORE.SYSTEM.CONST>  (1) 
0

>  <SCORE.SYSTEM.DIHEDRAL>  (1) 
0

>  <SCORE.SYSTEM.norm>  (1) 
0

>  <SCORE.heavy>  (1) 
13

>  <SCORE.norm>  (1) 
-0.232632

>  <TETHERED ATOMS>  (1) 
8,1,2,3,11,10,9

>  <skeledock_score>  (1) 
35

$$$$
