F709
     RDKit          3D

 29 30  0  0  0  0  0  0  0  0999 V2000
  -18.6264   15.1922   24.4580 N   0  0  0  0  0  0  0  0  0  0  0  0
  -18.1867   14.1248   25.3006 C   0  0  0  0  0  0  0  0  0  0  0  0
  -17.8621   13.0250   24.7777 O   0  0  0  0  0  0  0  0  0  0  0  0
  -18.1443   14.2768   26.7310 N   0  0  0  0  0  0  0  0  0  0  0  0
  -18.3706   13.0960   27.5810 C   0  0  0  0  0  0  0  0  0  0  0  0
  -18.2481   13.4395   29.0706 C   0  0  0  0  0  0  0  0  0  0  0  0
  -18.9350   14.7040   29.3431 N   0  0  0  0  0  0  0  0  0  0  0  0
  -18.6755   15.8869   28.5096 C   0  0  0  0  0  0  0  0  0  0  0  0
  -17.7405   15.5491   27.3452 C   0  0  0  0  0  0  0  0  0  0  0  0
  -19.9393   14.7573   30.3620 C   0  0  0  0  0  0  0  0  0  0  0  0
  -19.6248   14.5455   31.5637 O   0  0  0  0  0  0  0  0  0  0  0  0
  -21.3401   14.9945   29.9949 C   0  0  0  0  0  0  0  0  0  0  0  0
  -21.8968   14.8521   28.7400 C   0  0  0  0  0  0  0  0  0  0  0  0
  -23.2214   15.2093   28.8839 C   0  0  0  0  0  0  0  0  0  0  0  0
  -23.3887   15.5463   30.2102 C   0  0  0  0  0  0  0  0  0  0  0  0
  -22.2500   15.4095   30.8447 O   0  0  0  0  0  0  0  0  0  0  0  0
  -18.5923   15.0856   23.4198 H   0  0  0  0  0  0  0  0  0  0  0  0
  -19.0831   16.0429   24.8535 H   0  0  0  0  0  0  0  0  0  0  0  0
  -19.3931   12.7047   27.3879 H   0  0  0  0  0  0  0  0  0  0  0  0
  -17.6352   12.3009   27.3308 H   0  0  0  0  0  0  0  0  0  0  0  0
  -18.6729   12.6116   29.6804 H   0  0  0  0  0  0  0  0  0  0  0  0
  -17.1746   13.5451   29.3389 H   0  0  0  0  0  0  0  0  0  0  0  0
  -18.2226   16.6881   29.1320 H   0  0  0  0  0  0  0  0  0  0  0  0
  -19.6282   16.2708   28.0886 H   0  0  0  0  0  0  0  0  0  0  0  0
  -17.7388   16.3855   26.6169 H   0  0  0  0  0  0  0  0  0  0  0  0
  -16.7009   15.4495   27.7261 H   0  0  0  0  0  0  0  0  0  0  0  0
  -21.4023   14.5332   27.8318 H   0  0  0  0  0  0  0  0  0  0  0  0
  -23.9773   15.2238   28.1102 H   0  0  0  0  0  0  0  0  0  0  0  0
  -24.3101   15.8757   30.6713 H   0  0  0  0  0  0  0  0  0  0  0  0
  1  2  1  0
  2  3  2  0
  2  4  1  0
  4  5  1  0
  5  6  1  0
  6  7  1  0
  7  8  1  0
  8  9  1  0
  7 10  1  0
 10 11  2  0
 10 12  1  0
 12 13  2  0
 13 14  1  0
 14 15  2  0
 15 16  1  0
  9  4  1  0
 16 12  1  0
  1 17  1  0
  1 18  1  0
  5 19  1  0
  5 20  1  0
  6 21  1  0
  6 22  1  0
  8 23  1  0
  8 24  1  0
  9 25  1  0
  9 26  1  0
 13 27  1  0
 14 28  1  0
 15 29  1  0
M  END
>  <CHROM.1>  (1) 
17.46918773,0.78316700,0.15598532,-1.73473712

>  <Name>  (1) 
F709

>  <RI>  (1) 
1.19037e+07

>  <Rbt.Current_Directory>  (1) 
/data/out

>  <Rbt.Executable>  (1) 
rbdock ($Id: //depot/dev/client3/rdock/2013.1/src/exe/rbdock.cxx#4 $)

>  <Rbt.Library>  (1) 
libRbt.so (2013.1, Build901 2013/11/27)

>  <Rbt.Parameter_File>  (1) 
/python_libraries/phenodiscovery/docking/templates/RDOCK_TETHER.conf

>  <Rbt.Receptor>  (1) 
/data/out/rdock-opt/grid/rdock-grid.prm

>  <SCORE>  (1) 
-0.264457

>  <SCORE.INTER>  (1) 
-0.472924

>  <SCORE.INTER.CONST>  (1) 
1

>  <SCORE.INTER.POLAR>  (1) 
0

>  <SCORE.INTER.REPUL>  (1) 
0.0923918

>  <SCORE.INTER.ROT>  (1) 
1

>  <SCORE.INTER.VDW>  (1) 
-7.33488

>  <SCORE.INTER.norm>  (1) 
-0.0295577

>  <SCORE.INTRA>  (1) 
0.208467

>  <SCORE.INTRA.DIHEDRAL>  (1) 
1.15063

>  <SCORE.INTRA.DIHEDRAL.0>  (1) 
0.145651

>  <SCORE.INTRA.POLAR>  (1) 
0

>  <SCORE.INTRA.POLAR.0>  (1) 
0

>  <SCORE.INTRA.REPUL>  (1) 
0

>  <SCORE.INTRA.REPUL.0>  (1) 
0

>  <SCORE.INTRA.VDW>  (1) 
-0.366846

>  <SCORE.INTRA.VDW.0>  (1) 
-0.919844

>  <SCORE.INTRA.norm>  (1) 
0.0130292

>  <SCORE.RESTR>  (1) 
0

>  <SCORE.RESTR.CAVITY>  (1) 
0

>  <SCORE.RESTR.norm>  (1) 
0

>  <SCORE.SYSTEM>  (1) 
0

>  <SCORE.SYSTEM.CONST>  (1) 
0

>  <SCORE.SYSTEM.DIHEDRAL>  (1) 
0

>  <SCORE.SYSTEM.norm>  (1) 
0

>  <SCORE.heavy>  (1) 
16

>  <SCORE.norm>  (1) 
-0.0165285

>  <TETHERED ATOMS>  (1) 
2,4,9,6,3,7,10,12,16,15,14

>  <skeledock_score>  (1) 
37

$$$$
