F366
     RDKit          3D

 22 22  0  0  0  0  0  0  0  0999 V2000
  -21.0589   12.9357   27.8412 C   0  0  0  0  0  0  0  0  0  0  0  0
  -20.9635   14.2545   27.0817 C   0  0  0  0  0  0  0  0  0  0  0  0
  -19.6013   14.4761   26.6040 N   0  0  0  0  0  0  0  0  0  0  0  0
  -18.8520   15.5735   26.8247 C   0  0  0  0  0  0  0  0  0  0  0  0
  -17.6291   15.3770   26.2211 C   0  0  0  0  0  0  0  0  0  0  0  0
  -16.4436   16.2927   26.2575 C   0  0  0  0  0  0  0  0  0  0  0  0
  -15.8722   16.4034   27.6734 C   0  0  0  0  0  0  0  0  0  0  0  0
  -14.5407   16.8431   27.6430 O   0  0  0  0  0  0  0  0  0  0  0  0
  -17.6939   14.1139   25.6637 C   0  0  0  0  0  0  0  0  0  0  0  0
  -18.9094   13.5855   25.9089 N   0  0  0  0  0  0  0  0  0  0  0  0
  -20.8194   12.0848   27.1690 H   0  0  0  0  0  0  0  0  0  0  0  0
  -20.3504   12.9371   28.6966 H   0  0  0  0  0  0  0  0  0  0  0  0
  -22.0906   12.8028   28.2295 H   0  0  0  0  0  0  0  0  0  0  0  0
  -21.6636   14.2433   26.2187 H   0  0  0  0  0  0  0  0  0  0  0  0
  -21.2630   15.0826   27.7604 H   0  0  0  0  0  0  0  0  0  0  0  0
  -19.1658   16.4407   27.3919 H   0  0  0  0  0  0  0  0  0  0  0  0
  -15.6595   15.9189   25.5640 H   0  0  0  0  0  0  0  0  0  0  0  0
  -16.7519   17.3018   25.9092 H   0  0  0  0  0  0  0  0  0  0  0  0
  -16.4946   17.1055   28.2731 H   0  0  0  0  0  0  0  0  0  0  0  0
  -15.9125   15.4109   28.1715 H   0  0  0  0  0  0  0  0  0  0  0  0
  -14.5459   17.7341   27.2049 H   0  0  0  0  0  0  0  0  0  0  0  0
  -16.9039   13.6066   25.1261 H   0  0  0  0  0  0  0  0  0  0  0  0
  1  2  1  0
  2  3  1  0
  3  4  1  0
  4  5  2  0
  5  6  1  0
  6  7  1  0
  7  8  1  0
  5  9  1  0
  9 10  2  0
 10  3  1  0
  1 11  1  0
  1 12  1  0
  1 13  1  0
  2 14  1  0
  2 15  1  0
  4 16  1  0
  6 17  1  0
  6 18  1  0
  7 19  1  0
  7 20  1  0
  8 21  1  0
  9 22  1  0
M  END
>  <CHROM.1>  (1) 
-126.53107706,65.92416677,159.00192017,60.02267441,-3.14065559,-0.35803793
-2.70244302

>  <Name>  (1) 
F366

>  <RI>  (1) 
2.51723e+07

>  <Rbt.Current_Directory>  (1) 
/data/out

>  <Rbt.Executable>  (1) 
rbdock ($Id: //depot/dev/client3/rdock/2013.1/src/exe/rbdock.cxx#4 $)

>  <Rbt.Library>  (1) 
libRbt.so (2013.1, Build901 2013/11/27)

>  <Rbt.Parameter_File>  (1) 
/python_libraries/phenodiscovery/docking/templates/RDOCK_TETHER.conf

>  <Rbt.Receptor>  (1) 
/data/out/rdock-opt/grid/rdock-grid.prm

>  <SCORE>  (1) 
-0.0736323

>  <SCORE.INTER>  (1) 
-0.941601

>  <SCORE.INTER.CONST>  (1) 
1

>  <SCORE.INTER.POLAR>  (1) 
-0.894145

>  <SCORE.INTER.REPUL>  (1) 
0

>  <SCORE.INTER.ROT>  (1) 
3

>  <SCORE.INTER.VDW>  (1) 
-6.30151

>  <SCORE.INTER.norm>  (1) 
-0.0941601

>  <SCORE.INTRA>  (1) 
0.86743

>  <SCORE.INTRA.DIHEDRAL>  (1) 
0.405544

>  <SCORE.INTRA.DIHEDRAL.0>  (1) 
4.87529

>  <SCORE.INTRA.POLAR>  (1) 
0

>  <SCORE.INTRA.POLAR.0>  (1) 
0

>  <SCORE.INTRA.REPUL>  (1) 
0

>  <SCORE.INTRA.REPUL.0>  (1) 
0

>  <SCORE.INTRA.VDW>  (1) 
0.664658

>  <SCORE.INTRA.VDW.0>  (1) 
-1.53692

>  <SCORE.INTRA.norm>  (1) 
0.086743

>  <SCORE.RESTR>  (1) 
0.000539132

>  <SCORE.RESTR.CAVITY>  (1) 
0.000539132

>  <SCORE.RESTR.norm>  (1) 
5.39132e-05

>  <SCORE.SYSTEM>  (1) 
0

>  <SCORE.SYSTEM.CONST>  (1) 
0

>  <SCORE.SYSTEM.DIHEDRAL>  (1) 
0

>  <SCORE.SYSTEM.norm>  (1) 
0

>  <SCORE.heavy>  (1) 
10

>  <SCORE.norm>  (1) 
-0.00736323

>  <TETHERED ATOMS>  (1) 
2,3,4,5,9,10

>  <skeledock_score>  (1) 
31

$$$$
