F618
     RDKit          3D

 26 26  0  0  0  0  0  0  0  0999 V2000
  -18.7825   15.3841   26.3461 C   0  0  0  0  0  0  0  0  0  0  0  0
  -20.0655   14.5505   26.2122 C   0  0  0  0  0  0  0  0  0  0  0  0
  -19.8336   13.2423   25.4361 C   0  0  0  0  0  0  0  0  0  0  0  0
  -18.7867   12.4972   25.9928 O   0  0  0  0  0  0  0  0  0  0  0  0
  -20.6868   14.3019   27.5307 N   0  0  0  0  0  0  0  0  0  0  0  0
  -22.1355   14.4106   27.7367 C   0  0  0  0  0  0  0  0  0  0  0  0
  -19.8686   14.0106   28.6813 C   0  0  0  0  0  0  0  0  0  0  0  0
  -19.0608   12.9124   28.6682 N   0  0  0  0  0  0  0  0  0  0  0  0
  -18.2547   12.5944   29.7161 C   0  0  0  0  0  0  0  0  0  0  0  0
  -18.2302   13.4062   30.8506 C   0  0  0  0  0  0  0  0  0  0  0  0
  -19.0320   14.5466   30.8897 C   0  0  0  0  0  0  0  0  0  0  0  0
  -19.8523   14.8607   29.8041 C   0  0  0  0  0  0  0  0  0  0  0  0
  -20.5830   16.0027   29.8356 F   0  0  0  0  0  0  0  0  0  0  0  0
  -18.4024   15.6565   25.3385 H   0  0  0  0  0  0  0  0  0  0  0  0
  -18.9924   16.3201   26.9043 H   0  0  0  0  0  0  0  0  0  0  0  0
  -17.9860   14.8292   26.8827 H   0  0  0  0  0  0  0  0  0  0  0  0
  -20.7661   15.1423   25.5827 H   0  0  0  0  0  0  0  0  0  0  0  0
  -19.5848   13.4878   24.3788 H   0  0  0  0  0  0  0  0  0  0  0  0
  -20.7709   12.6418   25.4408 H   0  0  0  0  0  0  0  0  0  0  0  0
  -19.0306   12.3460   26.9428 H   0  0  0  0  0  0  0  0  0  0  0  0
  -22.6861   14.4868   26.7794 H   0  0  0  0  0  0  0  0  0  0  0  0
  -22.5066   13.5068   28.2651 H   0  0  0  0  0  0  0  0  0  0  0  0
  -22.3618   15.3091   28.3485 H   0  0  0  0  0  0  0  0  0  0  0  0
  -17.6319   11.7113   29.6671 H   0  0  0  0  0  0  0  0  0  0  0  0
  -17.5895   13.1587   31.6870 H   0  0  0  0  0  0  0  0  0  0  0  0
  -19.0087   15.1932   31.7576 H   0  0  0  0  0  0  0  0  0  0  0  0
  1  2  1  0
  2  3  1  0
  3  4  1  0
  2  5  1  0
  5  6  1  0
  5  7  1  0
  7  8  2  0
  8  9  1  0
  9 10  2  0
 10 11  1  0
 11 12  2  0
 12 13  1  0
  7 12  1  0
  1 14  1  0
  1 15  1  0
  1 16  1  0
  2 17  1  0
  3 18  1  0
  3 19  1  0
  4 20  1  0
  6 21  1  0
  6 22  1  0
  6 23  1  0
  9 24  1  0
 10 25  1  0
 11 26  1  0
M  END
>  <CHROM.1>  (1) 
53.80978612,56.65370582,137.15603769,-60.34452687,1.49838468,-0.86152459
1.23202280

>  <Name>  (1) 
F618

>  <RI>  (1) 
4.07835e+07

>  <Rbt.Current_Directory>  (1) 
/data/out

>  <Rbt.Executable>  (1) 
rbdock ($Id: //depot/dev/client3/rdock/2013.1/src/exe/rbdock.cxx#4 $)

>  <Rbt.Library>  (1) 
libRbt.so (2013.1, Build901 2013/11/27)

>  <Rbt.Parameter_File>  (1) 
/python_libraries/phenodiscovery/docking/templates/RDOCK_TETHER.conf

>  <Rbt.Receptor>  (1) 
/data/out/rdock-opt/grid/rdock-grid.prm

>  <SCORE>  (1) 
-4.03752

>  <SCORE.INTER>  (1) 
-0.774683

>  <SCORE.INTER.CONST>  (1) 
1

>  <SCORE.INTER.POLAR>  (1) 
0

>  <SCORE.INTER.REPUL>  (1) 
0

>  <SCORE.INTER.ROT>  (1) 
3

>  <SCORE.INTER.VDW>  (1) 
-9.17468

>  <SCORE.INTER.norm>  (1) 
-0.059591

>  <SCORE.INTRA>  (1) 
-3.26284

>  <SCORE.INTRA.DIHEDRAL>  (1) 
2.71514

>  <SCORE.INTRA.DIHEDRAL.0>  (1) 
9.44874

>  <SCORE.INTRA.POLAR>  (1) 
-0.999934

>  <SCORE.INTRA.POLAR.0>  (1) 
0

>  <SCORE.INTRA.REPUL>  (1) 
0

>  <SCORE.INTRA.REPUL.0>  (1) 
0

>  <SCORE.INTRA.VDW>  (1) 
-1.22063

>  <SCORE.INTRA.VDW.0>  (1) 
-1.0415

>  <SCORE.INTRA.norm>  (1) 
-0.250987

>  <SCORE.RESTR>  (1) 
0

>  <SCORE.RESTR.CAVITY>  (1) 
0

>  <SCORE.RESTR.norm>  (1) 
0

>  <SCORE.SYSTEM>  (1) 
0

>  <SCORE.SYSTEM.CONST>  (1) 
0

>  <SCORE.SYSTEM.DIHEDRAL>  (1) 
0

>  <SCORE.SYSTEM.norm>  (1) 
0

>  <SCORE.heavy>  (1) 
13

>  <SCORE.norm>  (1) 
-0.310578

>  <TETHERED ATOMS>  (1) 
7,12,11,10,9,2,5,3,4,13

>  <skeledock_score>  (1) 
53

$$$$
