F199
     RDKit          3D

 25 26  0  0  0  0  0  0  0  0999 V2000
  -20.2196   16.9639   32.2999 C   0  0  0  0  0  0  0  0  0  0  0  0
  -20.3003   16.0324   31.1383 C   0  0  0  0  0  0  0  0  0  0  0  0
  -20.4522   16.3909   29.8170 C   0  0  0  0  0  0  0  0  0  0  0  0
  -20.4673   15.1771   29.1562 C   0  0  0  0  0  0  0  0  0  0  0  0
  -20.3266   14.1756   30.0472 N   0  0  0  0  0  0  0  0  0  0  0  0
  -20.2312   14.7250   31.2231 O   0  0  0  0  0  0  0  0  0  0  0  0
  -20.5441   14.9648   27.7031 C   0  0  0  0  0  0  0  0  0  0  0  0
  -21.6682   14.7580   27.1718 O   0  0  0  0  0  0  0  0  0  0  0  0
  -19.3588   14.9751   26.8965 N   0  0  0  0  0  0  0  0  0  0  0  0
  -19.1840   14.1277   25.7533 C   0  0  0  0  0  0  0  0  0  0  0  0
  -20.0254   13.1275   25.2963 C   0  0  0  0  0  0  0  0  0  0  0  0
  -19.4131   12.4764   24.2875 N   0  0  0  0  0  0  0  0  0  0  0  0
  -18.2294   13.0425   24.1022 N   0  0  0  0  0  0  0  0  0  0  0  0
  -17.2405   12.5594   23.1487 C   0  0  0  0  0  0  0  0  0  0  0  0
  -18.0452   14.0385   24.9876 C   0  0  0  0  0  0  0  0  0  0  0  0
  -20.0958   16.3878   33.2407 H   0  0  0  0  0  0  0  0  0  0  0  0
  -19.3513   17.6437   32.1736 H   0  0  0  0  0  0  0  0  0  0  0  0
  -21.1510   17.5645   32.3621 H   0  0  0  0  0  0  0  0  0  0  0  0
  -20.5226   17.3890   29.4059 H   0  0  0  0  0  0  0  0  0  0  0  0
  -18.5470   15.5581   27.1988 H   0  0  0  0  0  0  0  0  0  0  0  0
  -20.9944   12.8544   25.6899 H   0  0  0  0  0  0  0  0  0  0  0  0
  -16.5459   11.8584   23.6571 H   0  0  0  0  0  0  0  0  0  0  0  0
  -17.7453   12.0305   22.3126 H   0  0  0  0  0  0  0  0  0  0  0  0
  -16.6627   13.4123   22.7331 H   0  0  0  0  0  0  0  0  0  0  0  0
  -17.1419   14.6269   25.0888 H   0  0  0  0  0  0  0  0  0  0  0  0
  1  2  1  0
  2  3  2  0
  3  4  1  0
  4  5  2  0
  5  6  1  0
  4  7  1  0
  7  8  2  0
  7  9  1  0
  9 10  1  0
 10 11  1  0
 11 12  2  0
 12 13  1  0
 13 14  1  0
 13 15  1  0
  6  2  1  0
 10 15  2  0
  1 16  1  0
  1 17  1  0
  1 18  1  0
  3 19  1  0
  9 20  1  0
 11 21  1  0
 14 22  1  0
 14 23  1  0
 14 24  1  0
 15 25  1  0
M  END
>  <CHROM.1>  (1) 
-95.20301807,-5.16665266,2.57392644,-1.20550783,2.27124429

>  <Name>  (1) 
F199

>  <RI>  (1) 
3.12275e+07

>  <Rbt.Current_Directory>  (1) 
/data/out

>  <Rbt.Executable>  (1) 
rbdock ($Id: //depot/dev/client3/rdock/2013.1/src/exe/rbdock.cxx#4 $)

>  <Rbt.Library>  (1) 
libRbt.so (2013.1, Build901 2013/11/27)

>  <Rbt.Parameter_File>  (1) 
/python_libraries/phenodiscovery/docking/templates/RDOCK_TETHER.conf

>  <Rbt.Receptor>  (1) 
/data/out/rdock-opt/grid/rdock-grid.prm

>  <SCORE>  (1) 
5.37179

>  <SCORE.INTER>  (1) 
0.0260024

>  <SCORE.INTER.CONST>  (1) 
1

>  <SCORE.INTER.POLAR>  (1) 
0

>  <SCORE.INTER.REPUL>  (1) 
0.00869035

>  <SCORE.INTER.ROT>  (1) 
2

>  <SCORE.INTER.VDW>  (1) 
-7.41745

>  <SCORE.INTER.norm>  (1) 
0.00173349

>  <SCORE.INTRA>  (1) 
5.34579

>  <SCORE.INTRA.DIHEDRAL>  (1) 
10.8088

>  <SCORE.INTRA.DIHEDRAL.0>  (1) 
1.18619

>  <SCORE.INTRA.POLAR>  (1) 
0

>  <SCORE.INTRA.POLAR.0>  (1) 
0

>  <SCORE.INTRA.REPUL>  (1) 
0

>  <SCORE.INTRA.REPUL.0>  (1) 
0

>  <SCORE.INTRA.VDW>  (1) 
-0.0586311

>  <SCORE.INTRA.VDW.0>  (1) 
-1.01722

>  <SCORE.INTRA.norm>  (1) 
0.356386

>  <SCORE.RESTR>  (1) 
0

>  <SCORE.RESTR.CAVITY>  (1) 
0

>  <SCORE.RESTR.norm>  (1) 
0

>  <SCORE.SYSTEM>  (1) 
0

>  <SCORE.SYSTEM.CONST>  (1) 
0

>  <SCORE.SYSTEM.DIHEDRAL>  (1) 
0

>  <SCORE.SYSTEM.norm>  (1) 
0

>  <SCORE.heavy>  (1) 
15

>  <SCORE.norm>  (1) 
0.358119

>  <TETHERED ATOMS>  (1) 
2,3,4,7,9,10,15,5,6,13

>  <skeledock_score>  (1) 
36

$$$$
