F126
     RDKit          3D

 23 23  0  0  0  0  0  0  0  0999 V2000
  -18.3841   13.0365   32.1763 C   0  0  0  0  0  0  0  0  0  0  0  0
  -19.6605   13.8437   32.4327 C   0  0  0  0  0  0  0  0  0  0  0  0
  -20.7847   12.9411   32.9504 C   0  0  0  0  0  0  0  0  0  0  0  0
  -20.0922   14.5614   31.1822 C   0  0  0  0  0  0  0  0  0  0  0  0
  -20.7915   15.7238   31.2617 N   0  0  0  0  0  0  0  0  0  0  0  0
  -21.1892   16.3775   30.1420 C   0  0  0  0  0  0  0  0  0  0  0  0
  -20.8819   15.8648   28.8796 C   0  0  0  0  0  0  0  0  0  0  0  0
  -21.4748   16.7311   27.4655 Cl  0  0  0  0  0  0  0  0  0  0  0  0
  -20.1480   14.6597   28.8062 C   0  0  0  0  0  0  0  0  0  0  0  0
  -19.7816   14.0456   29.9641 N   0  0  0  0  0  0  0  0  0  0  0  0
  -19.7455   14.0313   27.5248 C   0  0  0  0  0  0  0  0  0  0  0  0
  -18.5928   13.5460   27.3782 O   0  0  0  0  0  0  0  0  0  0  0  0
  -20.6779   13.9309   26.4461 N   0  0  0  0  0  0  0  0  0  0  0  0
  -18.0403   12.5575   33.1179 H   0  0  0  0  0  0  0  0  0  0  0  0
  -17.5760   13.7070   31.8130 H   0  0  0  0  0  0  0  0  0  0  0  0
  -18.5622   12.2443   31.4174 H   0  0  0  0  0  0  0  0  0  0  0  0
  -19.4359   14.5959   33.2218 H   0  0  0  0  0  0  0  0  0  0  0  0
  -21.6989   13.5431   33.1422 H   0  0  0  0  0  0  0  0  0  0  0  0
  -21.0264   12.1464   32.2120 H   0  0  0  0  0  0  0  0  0  0  0  0
  -20.4793   12.4608   33.9044 H   0  0  0  0  0  0  0  0  0  0  0  0
  -21.7528   17.2965   30.2354 H   0  0  0  0  0  0  0  0  0  0  0  0
  -21.6376   14.3357   26.5173 H   0  0  0  0  0  0  0  0  0  0  0  0
  -20.3992   13.4635   25.5548 H   0  0  0  0  0  0  0  0  0  0  0  0
  1  2  1  0
  2  3  1  0
  2  4  1  0
  4  5  2  0
  5  6  1  0
  6  7  2  0
  7  8  1  0
  7  9  1  0
  9 10  2  0
  9 11  1  0
 11 12  2  0
 11 13  1  0
  4 10  1  0
  1 14  1  0
  1 15  1  0
  1 16  1  0
  2 17  1  0
  3 18  1  0
  3 19  1  0
  3 20  1  0
  6 21  1  0
 13 22  1  0
 13 23  1  0
M  END
>  <CHROM.1>  (1) 
-151.80760229,137.49114193,0.87754102,-0.91063158,1.65979632

>  <Name>  (1) 
F126

>  <RI>  (1) 
1.93574e+07

>  <Rbt.Current_Directory>  (1) 
/data/out

>  <Rbt.Executable>  (1) 
rbdock ($Id: //depot/dev/client3/rdock/2013.1/src/exe/rbdock.cxx#4 $)

>  <Rbt.Library>  (1) 
libRbt.so (2013.1, Build901 2013/11/27)

>  <Rbt.Parameter_File>  (1) 
/python_libraries/phenodiscovery/docking/templates/RDOCK_TETHER.conf

>  <Rbt.Receptor>  (1) 
/data/out/rdock-opt/grid/rdock-grid.prm

>  <SCORE>  (1) 
8.87319

>  <SCORE.INTER>  (1) 
6.84694

>  <SCORE.INTER.CONST>  (1) 
1

>  <SCORE.INTER.POLAR>  (1) 
0

>  <SCORE.INTER.REPUL>  (1) 
0.010192

>  <SCORE.INTER.ROT>  (1) 
2

>  <SCORE.INTER.VDW>  (1) 
-0.604018

>  <SCORE.INTER.norm>  (1) 
0.526688

>  <SCORE.INTRA>  (1) 
2.02625

>  <SCORE.INTRA.DIHEDRAL>  (1) 
4.60222

>  <SCORE.INTRA.DIHEDRAL.0>  (1) 
2.12184

>  <SCORE.INTRA.POLAR>  (1) 
0

>  <SCORE.INTRA.POLAR.0>  (1) 
0

>  <SCORE.INTRA.REPUL>  (1) 
0

>  <SCORE.INTRA.REPUL.0>  (1) 
0

>  <SCORE.INTRA.VDW>  (1) 
-0.274864

>  <SCORE.INTRA.VDW.0>  (1) 
-1.32249

>  <SCORE.INTRA.norm>  (1) 
0.155865

>  <SCORE.RESTR>  (1) 
0

>  <SCORE.RESTR.CAVITY>  (1) 
0

>  <SCORE.RESTR.norm>  (1) 
0

>  <SCORE.SYSTEM>  (1) 
0

>  <SCORE.SYSTEM.CONST>  (1) 
0

>  <SCORE.SYSTEM.DIHEDRAL>  (1) 
0

>  <SCORE.SYSTEM.norm>  (1) 
0

>  <SCORE.heavy>  (1) 
13

>  <SCORE.norm>  (1) 
0.682553

>  <TETHERED ATOMS>  (1) 
6,7,9,11,8,4,10,5,12

>  <skeledock_score>  (1) 
49

$$$$
