F368
     RDKit          3D

 29 30  0  0  0  0  0  0  0  0999 V2000
  -22.2265   17.8709   28.5885 C   0  0  0  0  0  0  0  0  0  0  0  0
  -21.1337   17.8343   27.5247 C   0  0  0  0  0  0  0  0  0  0  0  0
  -20.7717   16.4559   27.2135 N   0  0  0  0  0  0  0  0  0  0  0  0
  -19.5402   16.0150   26.8963 C   0  0  0  0  0  0  0  0  0  0  0  0
  -19.6419   14.6765   26.5980 C   0  0  0  0  0  0  0  0  0  0  0  0
  -18.5857   13.8659   26.0639 N   0  0  0  0  0  0  0  0  0  0  0  0
  -18.7358   12.4929   25.6652 C   0  0  0  0  0  0  0  0  0  0  0  0
  -19.6928   11.8030   26.1060 O   0  0  0  0  0  0  0  0  0  0  0  0
  -17.7311   11.8332   24.7519 C   0  0  0  0  0  0  0  0  0  0  0  0
  -17.4554   12.6096   23.4661 C   0  0  0  0  0  0  0  0  0  0  0  0
  -18.0169   11.4513   22.6503 C   0  0  0  0  0  0  0  0  0  0  0  0
  -18.2905   10.6724   23.9313 C   0  0  0  0  0  0  0  0  0  0  0  0
  -20.9800   14.3555   26.7549 C   0  0  0  0  0  0  0  0  0  0  0  0
  -21.6468   15.4638   27.1349 N   0  0  0  0  0  0  0  0  0  0  0  0
  -22.4606   18.9252   28.8459 H   0  0  0  0  0  0  0  0  0  0  0  0
  -23.1503   17.3840   28.2110 H   0  0  0  0  0  0  0  0  0  0  0  0
  -21.8838   17.3454   29.5050 H   0  0  0  0  0  0  0  0  0  0  0  0
  -20.2429   18.3798   27.9054 H   0  0  0  0  0  0  0  0  0  0  0  0
  -21.4858   18.3452   26.6026 H   0  0  0  0  0  0  0  0  0  0  0  0
  -18.6511   16.6300   26.8389 H   0  0  0  0  0  0  0  0  0  0  0  0
  -17.6641   14.3320   25.9070 H   0  0  0  0  0  0  0  0  0  0  0  0
  -16.7912   11.5529   25.2790 H   0  0  0  0  0  0  0  0  0  0  0  0
  -16.3677   12.7591   23.2896 H   0  0  0  0  0  0  0  0  0  0  0  0
  -18.0517   13.5416   23.3517 H   0  0  0  0  0  0  0  0  0  0  0  0
  -18.9496   11.7235   22.1097 H   0  0  0  0  0  0  0  0  0  0  0  0
  -17.2475   10.9660   22.0108 H   0  0  0  0  0  0  0  0  0  0  0  0
  -17.6604    9.7596   24.0096 H   0  0  0  0  0  0  0  0  0  0  0  0
  -19.3735   10.4723   24.0865 H   0  0  0  0  0  0  0  0  0  0  0  0
  -21.4575   13.4051   26.5662 H   0  0  0  0  0  0  0  0  0  0  0  0
  1  2  1  0
  2  3  1  0
  3  4  1  0
  4  5  2  0
  5  6  1  0
  6  7  1  0
  7  8  2  0
  7  9  1  0
  9 10  1  0
 10 11  1  0
 11 12  1  0
  5 13  1  0
 13 14  2  0
 14  3  1  0
 12  9  1  0
  1 15  1  0
  1 16  1  0
  1 17  1  0
  2 18  1  0
  2 19  1  0
  4 20  1  0
  6 21  1  0
  9 22  1  0
 10 23  1  0
 10 24  1  0
 11 25  1  0
 11 26  1  0
 12 27  1  0
 12 28  1  0
 13 29  1  0
M  END
>  <CHROM.1>  (1) 
-145.15990980,-175.18631453,-52.06719622,-2.08298214,-0.50425771,-2.99119959

>  <Name>  (1) 
F368

>  <RI>  (1) 
3.54313e+07

>  <Rbt.Current_Directory>  (1) 
/data/out

>  <Rbt.Executable>  (1) 
rbdock ($Id: //depot/dev/client3/rdock/2013.1/src/exe/rbdock.cxx#4 $)

>  <Rbt.Library>  (1) 
libRbt.so (2013.1, Build901 2013/11/27)

>  <Rbt.Parameter_File>  (1) 
/python_libraries/phenodiscovery/docking/templates/RDOCK_TETHER.conf

>  <Rbt.Receptor>  (1) 
/data/out/rdock-opt/grid/rdock-grid.prm

>  <SCORE>  (1) 
4.03734

>  <SCORE.INTER>  (1) 
3.0844

>  <SCORE.INTER.CONST>  (1) 
1

>  <SCORE.INTER.POLAR>  (1) 
0

>  <SCORE.INTER.REPUL>  (1) 
0

>  <SCORE.INTER.ROT>  (1) 
3

>  <SCORE.INTER.VDW>  (1) 
-5.3156

>  <SCORE.INTER.norm>  (1) 
0.220314

>  <SCORE.INTRA>  (1) 
0.952944

>  <SCORE.INTRA.DIHEDRAL>  (1) 
0.0649813

>  <SCORE.INTRA.DIHEDRAL.0>  (1) 
4.35892

>  <SCORE.INTRA.POLAR>  (1) 
0

>  <SCORE.INTRA.POLAR.0>  (1) 
0

>  <SCORE.INTRA.REPUL>  (1) 
0

>  <SCORE.INTRA.REPUL.0>  (1) 
0

>  <SCORE.INTRA.VDW>  (1) 
0.920454

>  <SCORE.INTRA.VDW.0>  (1) 
-2.12569

>  <SCORE.INTRA.norm>  (1) 
0.0680675

>  <SCORE.RESTR>  (1) 
0

>  <SCORE.RESTR.CAVITY>  (1) 
0

>  <SCORE.RESTR.norm>  (1) 
0

>  <SCORE.SYSTEM>  (1) 
0

>  <SCORE.SYSTEM.CONST>  (1) 
0

>  <SCORE.SYSTEM.DIHEDRAL>  (1) 
0

>  <SCORE.SYSTEM.norm>  (1) 
0

>  <SCORE.heavy>  (1) 
14

>  <SCORE.norm>  (1) 
0.288382

>  <TETHERED ATOMS>  (1) 
4,5,6,7,8,9,1,2,3

>  <skeledock_score>  (1) 
40

$$$$
