


 14 15  0  0  0  0  0  0  0  0999 V2000
  -15.1502   10.6708   21.7422 C   0  0  0  0  0  0  0  0  0  0  0  0
  -16.1024   11.7902   21.7092 N   0  0  0  0  0  0  0  0  0  0  0  0
  -16.4068   12.4481   22.8427 N   0  0  0  0  0  0  0  0  0  0  0  0
  -17.2783   13.4726   22.8125 N   0  0  0  0  0  0  0  0  0  0  0  0
  -17.5935   14.1537   23.9860 C   0  0  0  0  0  0  0  0  0  0  0  0
  -18.5780   15.3113   23.9519 C   0  0  0  0  0  0  0  0  0  0  0  0
  -18.7446   15.8761   25.3531 C   0  0  0  0  0  0  0  0  0  0  0  0
  -19.7292   17.0336   25.3190 C   0  0  0  0  0  0  0  0  0  0  0  0
  -21.0733   16.5407   24.8083 C   0  0  0  0  0  0  0  0  0  0  0  0
  -16.6896   12.1698   20.5046 C   0  0  0  0  0  0  0  0  0  0  0  0
  -19.8959   17.5985   26.7204 C   0  0  0  0  0  0  0  0  0  0  0  0
  -21.0594   17.8074   27.1870 O   0  0  0  0  0  0  0  0  0  0  0  0
  -18.7515   17.8927   27.5080 O   0  0  0  0  0  0  0  0  0  0  0  0
  -17.8937   17.7385   27.1639 H   0  0  0  0  0  0  0  0  0  0  0  0
  1  2  1  0  0  0
  2  3  1  0  0  0
  2 10  1  0  0  0
  3  4  2  0  0  0
  4  5  1  0  0  0
  5  6  1  0  0  0
  5 10  2  0  0  0
  6  7  1  0  0  0
  7  8  1  0  0  0
  8  9  1  0  0  0
  8 11  1  0  0  0
  9 10  1  0  0  0
 11 12  2  0  0  0
 11 13  1  0  0  0
 13 14  1  0  0  0
M  END
> <minimizedAffinity>
0.36337

> <CNNscore>
0.4135476351

> <CNNaffinity>
5.9833412170

$$$$
