


 14 14  0  0  0  0  0  0  0  0999 V2000
  -16.8943   14.2300   23.8484 N   0  0  0  0  0  0  0  0  0  0  0  0
  -15.9484   15.0563   24.6122 C   0  0  0  0  0  0  0  0  0  0  0  0
  -18.3406   14.4613   23.9745 C   0  0  0  0  0  0  0  0  0  0  0  0
  -18.8145   15.4644   24.8166 N   0  0  0  0  0  0  0  0  0  0  0  0
  -20.1848   15.6837   24.9360 C   0  0  0  0  0  0  0  0  0  0  0  0
  -20.6750   16.7210   25.8067 C   0  0  0  0  0  0  0  0  0  0  0  0
  -22.0918   16.9475   25.9301 C   0  0  0  0  0  0  0  0  0  0  0  0
  -19.2673   13.6508   23.2273 C   0  0  0  0  0  0  0  0  0  0  0  0
  -18.8147   12.6929   22.4233 F   0  0  0  0  0  0  0  0  0  0  0  0
  -15.5723   13.7960   21.8422 C   0  0  0  0  0  0  0  0  0  0  0  0
  -16.3940   13.1723   22.9585 C   0  0  0  0  0  0  0  0  0  0  0  0
  -15.5236   12.2118   23.7525 C   0  0  0  0  0  0  0  0  0  0  0  0
  -14.1550   12.5117   23.5210 O   0  0  0  0  0  0  0  0  0  0  0  0
  -13.9593   12.4192   22.5755 H   0  0  0  0  0  0  0  0  0  0  0  0
 10 11  1  0  0  0
 11 12  1  0  0  0
 11  1  1  0  0  0
 12 13  1  0  0  0
 13 14  1  0  0  0
  1  2  1  0  0  0
  1  3  1  0  0  0
  3  4  1  0  0  0
  3  8  2  0  0  0
  4  5  2  0  0  0
  5  6  1  0  0  0
  6  7  2  0  0  0
  7  8  1  0  0  0
  8  9  1  0  0  0
M  END
> <minimizedAffinity>
0.02029

> <CNNscore>
0.9770275354

> <CNNaffinity>
7.6411223412

$$$$
