


 16 17  0  0  0  0  0  0  0  0999 V2000
  -18.9718   16.1674   25.7370 C   0  0  0  0  0  0  0  0  0  0  0  0
  -19.3324   15.9454   24.5386 O   0  0  0  0  0  0  0  0  0  0  0  0
  -17.6033   15.8431   26.1648 N   0  0  0  0  0  0  0  0  0  0  0  0
  -17.3240   16.0151   27.0929 H   0  0  0  0  0  0  0  0  0  0  0  0
  -23.7517   17.5667   26.9545 C   0  0  0  0  0  0  0  0  0  0  0  0
  -22.2810   17.4491   27.3201 C   0  0  0  0  0  0  0  0  0  0  0  0
  -21.3489   16.8797   26.3813 C   0  0  0  0  0  0  0  0  0  0  0  0
  -19.9555   16.7683   26.7277 C   0  0  0  0  0  0  0  0  0  0  0  0
  -19.5093   17.2112   27.9706 N   0  0  0  0  0  0  0  0  0  0  0  0
  -21.8500   17.8768   28.5207 O   0  0  0  0  0  0  0  0  0  0  0  0
  -16.6520   15.2620   25.2065 C   0  0  0  0  0  0  0  0  0  0  0  0
  -17.0820   14.2260   24.3032 C   0  0  0  0  0  0  0  0  0  0  0  0
  -16.1806   13.6754   23.3953 N   0  0  0  0  0  0  0  0  0  0  0  0
  -16.5823   12.7076   22.5514 N   0  0  0  0  0  0  0  0  0  0  0  0
  -15.6310   12.1265   21.5932 C   0  0  0  0  0  0  0  0  0  0  0  0
  -15.2899   15.7285   25.1711 C   0  0  0  0  0  0  0  0  0  0  0  0
  5  6  1  0  0  0
  6  7  2  0  0  0
  6 10  1  0  0  0
  7  8  1  0  0  0
  8  9  2  0  0  0
  8  1  1  0  0  0
  9 10  1  0  0  0
  1  2  2  0  0  0
  1  3  1  0  0  0
  3 11  1  0  0  0
  3  4  1  0  0  0
 11 12  1  0  0  0
 11 16  2  0  0  0
 12 13  2  0  0  0
 13 14  1  0  0  0
 14 15  1  0  0  0
 14 16  1  0  0  0
M  END
> <minimizedAffinity>
0.46287

> <CNNscore>
0.7181208730

> <CNNaffinity>
6.4947671890

$$$$
