


 10 10  0  0  0  0  0  0  0  0999 V2000
  -21.3380   17.6089   28.1127 Br  0  0  0  0  0  0  0  0  0  0  0  0
  -19.6143   17.6148   27.1797 C   0  0  0  0  0  0  0  0  0  0  0  0
  -18.3917   17.7623   27.9265 C   0  0  0  0  0  0  0  0  0  0  0  0
  -17.1668   17.7665   27.2634 N   0  0  0  0  0  0  0  0  0  0  0  0
  -16.0246   17.9042   27.9612 N   0  0  0  0  0  0  0  0  0  0  0  0
  -19.5703   17.4716   25.7473 C   0  0  0  0  0  0  0  0  0  0  0  0
  -17.1219   17.6203   25.8014 C   0  0  0  0  0  0  0  0  0  0  0  0
  -15.8485   16.8916   25.4040 C   0  0  0  0  0  0  0  0  0  0  0  0
  -16.0247   15.4949   25.5901 O   0  0  0  0  0  0  0  0  0  0  0  0
  -16.4090   14.8983   24.3602 C   0  0  0  0  0  0  0  0  0  0  0  0
  1  2  1  0  0  0
  2  3  2  0  0  0
  2  6  1  0  0  0
  3  4  1  0  0  0
  4  7  1  0  0  0
  4  5  1  0  0  0
  7  8  1  0  0  0
  8  9  1  0  0  0
  9 10  1  0  0  0
  5  6  2  0  0  0
M  END
> <minimizedAffinity>
0.00957

> <CNNscore>
0.9760403633

> <CNNaffinity>
7.3840937614

$$$$
