


 14 15  0  0  0  0  0  0  0  0999 V2000
  -16.5494   13.6703   23.7524 C   0  0  0  0  0  0  0  0  0  0  0  0
  -16.2030   14.1345   25.0711 C   0  0  0  0  0  0  0  0  0  0  0  0
  -16.9789   15.1104   25.6920 N   0  0  0  0  0  0  0  0  0  0  0  0
  -16.6553   15.5440   26.9237 N   0  0  0  0  0  0  0  0  0  0  0  0
  -17.6981   14.2151   23.0758 C   0  0  0  0  0  0  0  0  0  0  0  0
  -17.4743   16.5741   27.5790 C   0  0  0  0  0  0  0  0  0  0  0  0
  -18.8009   16.7068   26.8491 C   0  0  0  0  0  0  0  0  0  0  0  0
  -19.6477   17.7718   27.5265 C   0  0  0  0  0  0  0  0  0  0  0  0
  -20.9743   17.9045   26.7965 C   0  0  0  0  0  0  0  0  0  0  0  0
  -16.7402   17.9045   27.5417 C   0  0  0  0  0  0  0  0  0  0  0  0
  -14.3150   12.5908   23.6952 C   0  0  0  0  0  0  0  0  0  0  0  0
  -15.7026   12.6052   23.0749 C   0  0  0  0  0  0  0  0  0  0  0  0
  -16.3120   11.3345   23.2488 O   0  0  0  0  0  0  0  0  0  0  0  0
  -16.3833   11.1369   24.1958 H   0  0  0  0  0  0  0  0  0  0  0  0
 11 12  1  0  0  0
 12 13  1  0  0  0
 12  1  1  0  0  0
 13 14  1  0  0  0
  1  2  1  0  0  0
  1  5  2  0  0  0
  2  3  2  0  0  0
  3  4  1  0  0  0
  4  5  1  0  0  0
  4  6  1  0  0  0
  6  7  1  0  0  0
  6 10  1  0  0  0
  7  8  1  0  0  0
  8  9  1  0  0  0
  9 10  1  0  0  0
M  END
> <minimizedAffinity>
0.20188

> <CNNscore>
0.7037316561

> <CNNaffinity>
6.0514559746

$$$$
