


 13 13  0  0  0  0  0  0  0  0999 V2000
  -17.1754   15.5108   24.8867 C   0  0  0  0  0  0  0  0  0  0  0  0
  -17.7860   16.5697   25.6484 C   0  0  0  0  0  0  0  0  0  0  0  0
  -19.2193   16.7099   25.6661 C   0  0  0  0  0  0  0  0  0  0  0  0
  -19.8299   17.7688   26.4278 C   0  0  0  0  0  0  0  0  0  0  0  0
  -21.2631   17.9090   26.4455 C   0  0  0  0  0  0  0  0  0  0  0  0
  -17.9981   14.5922   24.1427 C   0  0  0  0  0  0  0  0  0  0  0  0
  -17.2307   13.2615   23.1854 S   0  0  0  0  0  0  0  0  0  0  0  0
  -16.4499   13.8608   22.0136 O   0  0  0  0  0  0  0  0  0  0  0  0
  -16.2761   12.4717   24.0838 O   0  0  0  0  0  0  0  0  0  0  0  0
  -18.5160   12.1558   22.5513 C   0  0  0  0  0  0  0  0  0  0  0  0
  -14.8581   16.5061   25.2356 C   0  0  0  0  0  0  0  0  0  0  0  0
  -15.7126   15.3677   24.8686 N   0  0  0  0  0  0  0  0  0  0  0  0
  -15.3051   14.5094   24.6109 H   0  0  0  0  0  0  0  0  0  0  0  0
 11 12  1  0  0  0
 12  1  1  0  0  0
 12 13  1  0  0  0
  1  2  1  0  0  0
  1  6  2  0  0  0
  2  3  2  0  0  0
  3  4  1  0  0  0
  4  5  2  0  0  0
  5  6  1  0  0  0
  6  7  1  0  0  0
  7  8  2  0  0  0
  7  9  2  0  0  0
  7 10  1  0  0  0
M  END
> <minimizedAffinity>
0.39658

> <CNNscore>
0.2411340177

> <CNNaffinity>
7.5263862610

$$$$
