


 16 18  0  0  0  0  0  0  0  0999 V2000
  -17.6919   14.2948   23.9120 C   0  0  0  0  0  0  0  0  0  0  0  0
  -16.5336   13.4569   23.7378 C   0  0  0  0  0  0  0  0  0  0  0  0
  -16.4806   12.5196   22.6456 C   0  0  0  0  0  0  0  0  0  0  0  0
  -15.3223   11.6816   22.4713 C   0  0  0  0  0  0  0  0  0  0  0  0
  -15.2700   10.7575   21.3944 O   0  0  0  0  0  0  0  0  0  0  0  0
  -14.1279    9.9313   21.2226 C   0  0  0  0  0  0  0  0  0  0  0  0
  -14.3119    9.0996   20.0866 O   0  0  0  0  0  0  0  0  0  0  0  0
  -14.2170   11.7810   23.3894 C   0  0  0  0  0  0  0  0  0  0  0  0
  -18.7972   14.1955   22.9940 C   0  0  0  0  0  0  0  0  0  0  0  0
  -16.7383   15.4355   25.8216 O   0  0  0  0  0  0  0  0  0  0  0  0
  -17.7479   15.2840   25.0646 C   0  0  0  0  0  0  0  0  0  0  0  0
  -18.9698   16.0656   25.3038 N   0  0  0  0  0  0  0  0  0  0  0  0
  -19.7518   15.9482   24.7174 H   0  0  0  0  0  0  0  0  0  0  0  0
  -19.0239   17.0224   26.4184 C   0  0  0  0  0  0  0  0  0  0  0  0
  -20.2648   17.8896   26.2819 C   0  0  0  0  0  0  0  0  0  0  0  0
  -17.7851   17.9025   26.3913 C   0  0  0  0  0  0  0  0  0  0  0  0
 10 11  2  0  0  0
 11 12  1  0  0  0
 11  1  1  0  0  0
 12 14  1  0  0  0
 12 13  1  0  0  0
 14 15  1  0  0  0
 14 16  1  0  0  0
 15 16  1  0  0  0
  1  2  1  0  0  0
  1  9  2  0  0  0
  2  3  2  0  0  0
  3  4  1  0  0  0
  4  5  1  0  0  0
  4  8  2  0  0  0
  5  6  1  0  0  0
  6  7  1  0  0  0
  7  8  1  0  0  0
  8  9  1  0  0  0
M  END
> <minimizedAffinity>
1.23848

> <CNNscore>
0.0149551472

> <CNNaffinity>
5.7294321060

$$$$
