


 15 16  0  0  0  0  0  0  0  0999 V2000
  -16.9407   13.6473   22.6339 C   0  0  0  0  0  0  0  0  0  0  0  0
  -18.0657   14.4181   22.9170 N   0  0  0  0  0  0  0  0  0  0  0  0
  -18.1959   15.0294   24.1617 C   0  0  0  0  0  0  0  0  0  0  0  0
  -19.3591   15.8266   24.4543 C   0  0  0  0  0  0  0  0  0  0  0  0
  -19.4937   16.4586   25.7414 C   0  0  0  0  0  0  0  0  0  0  0  0
  -20.6569   17.2557   26.0341 C   0  0  0  0  0  0  0  0  0  0  0  0
  -20.7915   17.8878   27.3212 C   0  0  0  0  0  0  0  0  0  0  0  0
  -17.1672   14.8644   25.1561 C   0  0  0  0  0  0  0  0  0  0  0  0
  -15.9459   13.4876   23.5956 N   0  0  0  0  0  0  0  0  0  0  0  0
  -15.0879   13.0059   23.6264 H   0  0  0  0  0  0  0  0  0  0  0  0
  -16.7987   12.9802   21.2755 C   0  0  0  0  0  0  0  0  0  0  0  0
  -19.2635   12.6714   19.6739 C   0  0  0  0  0  0  0  0  0  0  0  0
  -18.2383   11.9275   20.9669 S   0  0  0  0  0  0  0  0  0  0  0  0
  -19.0571   11.7930   22.2528 O   0  0  0  0  0  0  0  0  0  0  0  0
  -17.7700   10.5430   20.5130 O   0  0  0  0  0  0  0  0  0  0  0  0
 12 13  1  0  0  0
 13 14  2  0  0  0
 13 15  2  0  0  0
 13 11  1  0  0  0
 11  1  1  0  0  0
  1  2  2  0  0  0
  1  9  1  0  0  0
  2  3  1  0  0  0
  3  4  1  0  0  0
  3  8  2  0  0  0
  4  5  2  0  0  0
  5  6  1  0  0  0
  6  7  2  0  0  0
  7  8  1  0  0  0
  8  9  1  0  0  0
  9 10  1  0  0  0
M  END
> <minimizedAffinity>
1.62952

> <CNNscore>
0.0186185241

> <CNNaffinity>
5.7089190483

$$$$
