


 16 17  0  0  0  0  0  0  0  0999 V2000
  -19.5194   15.4491   24.9700 N   0  0  0  0  0  0  0  0  0  0  0  0
  -19.8653   16.7378   25.5871 C   0  0  0  0  0  0  0  0  0  0  0  0
  -20.1378   17.7402   24.8549 O   0  0  0  0  0  0  0  0  0  0  0  0
  -19.3083   14.6727   25.5372 H   0  0  0  0  0  0  0  0  0  0  0  0
  -17.1562   14.5644   23.5977 N   0  0  0  0  0  0  0  0  0  0  0  0
  -18.2881   14.8738   22.8474 C   0  0  0  0  0  0  0  0  0  0  0  0
  -19.4887   15.3201   23.5060 C   0  0  0  0  0  0  0  0  0  0  0  0
  -20.6592   15.6400   22.7302 C   0  0  0  0  0  0  0  0  0  0  0  0
  -17.1843   14.6825   24.9377 N   0  0  0  0  0  0  0  0  0  0  0  0
  -15.5497   12.7322   23.4452 C   0  0  0  0  0  0  0  0  0  0  0  0
  -15.9308   14.1089   22.9256 C   0  0  0  0  0  0  0  0  0  0  0  0
  -19.8971   16.8713   27.1008 C   0  0  0  0  0  0  0  0  0  0  0  0
  -21.2807   17.3212   27.5409 C   0  0  0  0  0  0  0  0  0  0  0  0
  -21.3125   17.4547   29.0547 C   0  0  0  0  0  0  0  0  0  0  0  0
  -22.6961   17.9045   29.4947 C   0  0  0  0  0  0  0  0  0  0  0  0
  -18.8666   17.8985   27.5406 C   0  0  0  0  0  0  0  0  0  0  0  0
 10 11  1  0  0  0
 11  5  1  0  0  0
  5  6  1  0  0  0
  5  9  1  0  0  0
  6  7  2  0  0  0
  7  1  1  0  0  0
  7  8  1  0  0  0
  1  2  1  0  0  0
  1  4  1  0  0  0
  2  3  2  0  0  0
  2 12  1  0  0  0
 12 13  1  0  0  0
 12 16  1  0  0  0
 13 14  1  0  0  0
 14 15  1  0  0  0
 15 16  1  0  0  0
  8  9  2  0  0  0
M  END
> <minimizedAffinity>
0.25061

> <CNNscore>
0.6088190079

> <CNNaffinity>
6.8976831436

$$$$
