F687_25
     RDKit          3D

 24 25  0  0  0  0  0  0  0  0999 V2000
  -21.4061   12.0002   29.7870 F   0  0  0  0  0  0  0  0  0  0  0  0
  -22.5651   12.3077   29.1847 C   0  0  0  0  0  0  0  0  0  0  0  0
  -22.6114   12.5593   27.7987 C   0  0  0  0  0  0  0  0  0  0  0  0
  -21.5030   12.5099   26.9726 N   0  0  0  0  0  0  0  0  0  0  0  0
  -21.5829   12.1813   26.0149 H   0  0  0  0  0  0  0  0  0  0  0  0
  -20.1506   12.8975   27.3468 C   0  0  0  0  0  0  0  0  0  0  0  0
  -20.1977   13.6524   28.1419 H   0  0  0  0  0  0  0  0  0  0  0  0
  -19.6197   12.0225   27.7403 H   0  0  0  0  0  0  0  0  0  0  0  0
  -19.3193   13.4678   26.2303 C   0  0  0  0  0  0  0  0  0  0  0  0
  -18.7164   14.6260   26.3497 N   0  0  0  0  0  0  0  0  0  0  0  0
  -18.0739   14.8119   25.1660 N   0  0  0  0  0  0  0  0  0  0  0  0
  -17.5045   15.6534   24.9606 H   0  0  0  0  0  0  0  0  0  0  0  0
  -18.2693   13.7811   24.3177 C   0  0  0  0  0  0  0  0  0  0  0  0
  -17.8428   13.7483   23.3484 H   0  0  0  0  0  0  0  0  0  0  0  0
  -19.0605   12.9109   24.9816 C   0  0  0  0  0  0  0  0  0  0  0  0
  -19.4134   11.9766   24.6242 H   0  0  0  0  0  0  0  0  0  0  0  0
  -23.8414   12.8856   27.2224 C   0  0  0  0  0  0  0  0  0  0  0  0
  -23.8990   13.0933   26.1857 H   0  0  0  0  0  0  0  0  0  0  0  0
  -24.9906   12.9405   28.0113 C   0  0  0  0  0  0  0  0  0  0  0  0
  -25.9208   13.1852   27.5664 H   0  0  0  0  0  0  0  0  0  0  0  0
  -24.9283   12.6751   29.3809 C   0  0  0  0  0  0  0  0  0  0  0  0
  -25.8087   12.7186   29.9697 H   0  0  0  0  0  0  0  0  0  0  0  0
  -23.7063   12.3582   29.9715 C   0  0  0  0  0  0  0  0  0  0  0  0
  -23.6442   12.1622   31.0104 H   0  0  0  0  0  0  0  0  0  0  0  0
  1  2  1  0
  2  3  1  0
  2 23  2  0
  3  4  1  0
  3 17  2  0
  4  5  1  0
  4  6  1  0
  6  7  1  0
  6  8  1  0
  6  9  1  0
  9 10  2  0
  9 15  1  0
 10 11  1  0
 11 12  1  0
 11 13  1  0
 13 14  1  0
 13 15  2  0
 15 16  1  0
 17 18  1  0
 17 19  1  0
 19 20  1  0
 19 21  2  0
 21 22  1  0
 21 23  1  0
 23 24  1  0
M  END
$$$$
