F488_6
     RDKit          3D

 39 40  0  0  0  0  0  0  0  0999 V2000
  -21.5590   10.3316   26.7840 O   0  0  0  0  0  0  0  0  0  0  0  0
  -21.4113   11.3766   27.4098 C   0  0  0  0  0  0  0  0  0  0  0  0
  -22.4997   11.8721   28.3608 C   0  0  0  0  0  0  0  0  0  0  0  0
  -23.2468   11.0735   28.4413 H   0  0  0  0  0  0  0  0  0  0  0  0
  -22.0915   11.9930   29.3717 H   0  0  0  0  0  0  0  0  0  0  0  0
  -23.1754   13.0467   27.9437 O   0  0  0  0  0  0  0  0  0  0  0  0
  -24.2066   13.5253   28.7112 C   0  0  0  0  0  0  0  0  0  0  0  0
  -24.1510   13.7812   30.0807 C   0  0  0  0  0  0  0  0  0  0  0  0
  -23.2671   13.6036   30.6354 H   0  0  0  0  0  0  0  0  0  0  0  0
  -25.2787   14.2752   30.7287 C   0  0  0  0  0  0  0  0  0  0  0  0
  -25.2390   14.4768   31.7692 H   0  0  0  0  0  0  0  0  0  0  0  0
  -26.4588   14.5036   30.0204 C   0  0  0  0  0  0  0  0  0  0  0  0
  -27.6632   15.0678   30.7189 C   0  0  0  0  0  0  0  0  0  0  0  0
  -27.6411   16.1612   30.6742 H   0  0  0  0  0  0  0  0  0  0  0  0
  -28.5877   14.7123   30.2539 H   0  0  0  0  0  0  0  0  0  0  0  0
  -27.6874   14.7573   31.7684 H   0  0  0  0  0  0  0  0  0  0  0  0
  -26.5042   14.2332   28.6519 C   0  0  0  0  0  0  0  0  0  0  0  0
  -27.3977   14.3987   28.1079 H   0  0  0  0  0  0  0  0  0  0  0  0
  -25.3803   13.7401   27.9963 C   0  0  0  0  0  0  0  0  0  0  0  0
  -25.4146   13.5255   26.9595 H   0  0  0  0  0  0  0  0  0  0  0  0
  -20.2746   12.0975   27.2272 N   0  0  0  0  0  0  0  0  0  0  0  0
  -19.1716   11.5459   26.4270 C   0  0  0  0  0  0  0  0  0  0  0  0
  -18.3545   11.3274   27.1265 H   0  0  0  0  0  0  0  0  0  0  0  0
  -19.4481   10.5992   25.9534 H   0  0  0  0  0  0  0  0  0  0  0  0
  -18.6934   12.5271   25.3537 C   0  0  0  0  0  0  0  0  0  0  0  0
  -19.4750   12.7278   24.6135 H   0  0  0  0  0  0  0  0  0  0  0  0
  -17.7940   12.1522   24.8566 H   0  0  0  0  0  0  0  0  0  0  0  0
  -18.3347   13.8557   26.0013 N   0  0  0  0  0  0  0  0  0  0  0  0
  -17.5845   13.6756   26.6838 H   0  0  0  0  0  0  0  0  0  0  0  0
  -17.7842   14.8327   25.0036 C   0  0  0  0  0  0  0  0  0  0  0  0
  -17.4963   15.7398   25.5416 H   0  0  0  0  0  0  0  0  0  0  0  0
  -16.9046   14.3804   24.5370 H   0  0  0  0  0  0  0  0  0  0  0  0
  -18.5559   15.0464   24.2598 H   0  0  0  0  0  0  0  0  0  0  0  0
  -19.5191   14.4280   26.7608 C   0  0  0  0  0  0  0  0  0  0  0  0
  -20.2985   14.6485   26.0235 H   0  0  0  0  0  0  0  0  0  0  0  0
  -19.1875   15.3550   27.2386 H   0  0  0  0  0  0  0  0  0  0  0  0
  -20.0165   13.4217   27.8094 C   0  0  0  0  0  0  0  0  0  0  0  0
  -20.9082   13.8362   28.2820 H   0  0  0  0  0  0  0  0  0  0  0  0
  -19.2585   13.2852   28.5906 H   0  0  0  0  0  0  0  0  0  0  0  0
  1  2  2  0
  2  3  1  0
  2 21  1  0
  3  4  1  0
  3  5  1  0
  3  6  1  0
  6  7  1  0
  7  8  1  0
  7 19  2  0
  8  9  1  0
  8 10  2  0
 10 11  1  0
 10 12  1  0
 12 13  1  0
 12 17  2  0
 13 14  1  0
 13 15  1  0
 13 16  1  0
 17 18  1  0
 17 19  1  0
 19 20  1  0
 21 22  1  0
 21 37  1  0
 22 23  1  0
 22 24  1  0
 22 25  1  0
 25 26  1  0
 25 27  1  0
 25 28  1  0
 28 29  1  0
 28 30  1  0
 28 34  1  0
 30 31  1  0
 30 32  1  0
 30 33  1  0
 34 35  1  0
 34 36  1  0
 34 37  1  0
 37 38  1  0
 37 39  1  0
M  END
$$$$
