F709_92
     RDKit          3D

 29 30  0  0  0  0  0  0  0  0999 V2000
  -17.1199   14.5890   23.4746 O   0  0  0  0  0  0  0  0  0  0  0  0
  -17.2582   13.5559   24.1087 C   0  0  0  0  0  0  0  0  0  0  0  0
  -16.6499   12.4418   23.6960 N   0  0  0  0  0  0  0  0  0  0  0  0
  -15.8116   12.6015   23.1266 H   0  0  0  0  0  0  0  0  0  0  0  0
  -16.6578   11.6532   24.3475 H   0  0  0  0  0  0  0  0  0  0  0  0
  -18.0028   13.4564   25.2546 N   0  0  0  0  0  0  0  0  0  0  0  0
  -18.5003   14.6813   25.8871 C   0  0  0  0  0  0  0  0  0  0  0  0
  -18.2265   15.5707   25.3099 H   0  0  0  0  0  0  0  0  0  0  0  0
  -18.0070   14.7592   26.8636 H   0  0  0  0  0  0  0  0  0  0  0  0
  -20.0170   14.6273   26.0684 C   0  0  0  0  0  0  0  0  0  0  0  0
  -20.5094   14.5941   25.0891 H   0  0  0  0  0  0  0  0  0  0  0  0
  -20.3634   15.5330   26.5738 H   0  0  0  0  0  0  0  0  0  0  0  0
  -20.4299   13.4102   26.7836 N   0  0  0  0  0  0  0  0  0  0  0  0
  -21.2526   13.4998   27.9022 C   0  0  0  0  0  0  0  0  0  0  0  0
  -21.3563   14.6134   28.4176 O   0  0  0  0  0  0  0  0  0  0  0  0
  -21.9404   12.3419   28.4288 C   0  0  0  0  0  0  0  0  0  0  0  0
  -22.2825   11.3000   27.6125 O   0  0  0  0  0  0  0  0  0  0  0  0
  -22.9575   10.3924   28.3519 C   0  0  0  0  0  0  0  0  0  0  0  0
  -23.3063    9.4947   27.9092 H   0  0  0  0  0  0  0  0  0  0  0  0
  -23.0723   10.8380   29.6242 C   0  0  0  0  0  0  0  0  0  0  0  0
  -23.5550   10.3345   30.4209 H   0  0  0  0  0  0  0  0  0  0  0  0
  -22.4336   12.0999   29.6772 C   0  0  0  0  0  0  0  0  0  0  0  0
  -22.3424   12.7486   30.5109 H   0  0  0  0  0  0  0  0  0  0  0  0
  -19.9116   12.1616   26.2077 C   0  0  0  0  0  0  0  0  0  0  0  0
  -20.0974   11.3080   26.8618 H   0  0  0  0  0  0  0  0  0  0  0  0
  -20.4467   12.0013   25.2646 H   0  0  0  0  0  0  0  0  0  0  0  0
  -18.3944   12.2228   25.9512 C   0  0  0  0  0  0  0  0  0  0  0  0
  -18.1035   11.3289   25.3951 H   0  0  0  0  0  0  0  0  0  0  0  0
  -17.8542   12.2174   26.9057 H   0  0  0  0  0  0  0  0  0  0  0  0
  1  2  2  0
  2  3  1  0
  2  6  1  0
  3  4  1  0
  3  5  1  0
  6  7  1  0
  6 27  1  0
  7  8  1  0
  7  9  1  0
  7 10  1  0
 10 11  1  0
 10 12  1  0
 10 13  1  0
 13 14  1  0
 13 24  1  0
 14 15  2  0
 14 16  1  0
 16 17  1  0
 16 22  2  0
 17 18  1  0
 18 19  1  0
 18 20  2  0
 20 21  1  0
 20 22  1  0
 22 23  1  0
 24 25  1  0
 24 26  1  0
 24 27  1  0
 27 28  1  0
 27 29  1  0
M  END
$$$$
