F389_40
     RDKit          3D

 18 18  0  0  0  0  0  0  0  0999 V2000
  -22.4102   12.9884   29.4007 O   0  0  0  0  0  0  0  0  0  0  0  0
  -22.7356   13.2723   28.2569 C   0  0  0  0  0  0  0  0  0  0  0  0
  -21.9048   13.2121   27.1738 O   0  0  0  0  0  0  0  0  0  0  0  0
  -20.5464   12.8254   27.4342 C   0  0  0  0  0  0  0  0  0  0  0  0
  -20.5740   11.8024   27.8241 H   0  0  0  0  0  0  0  0  0  0  0  0
  -20.0960   13.4545   28.2099 H   0  0  0  0  0  0  0  0  0  0  0  0
  -19.7392   12.8614   26.1509 C   0  0  0  0  0  0  0  0  0  0  0  0
  -19.6974   13.8758   25.7416 H   0  0  0  0  0  0  0  0  0  0  0  0
  -20.2030   12.2296   25.3864 H   0  0  0  0  0  0  0  0  0  0  0  0
  -18.7177   12.5120   26.3252 H   0  0  0  0  0  0  0  0  0  0  0  0
  -24.0721   13.7198   27.9099 C   0  0  0  0  0  0  0  0  0  0  0  0
  -24.9254   14.4561   28.6780 C   0  0  0  0  0  0  0  0  0  0  0  0
  -24.8263   14.8563   29.6540 H   0  0  0  0  0  0  0  0  0  0  0  0
  -26.0351   14.6220   27.9395 N   0  0  0  0  0  0  0  0  0  0  0  0
  -26.8820   15.1427   28.2415 H   0  0  0  0  0  0  0  0  0  0  0  0
  -25.9338   14.0216   26.7223 N   0  0  0  0  0  0  0  0  0  0  0  0
  -24.7484   13.4800   26.7127 C   0  0  0  0  0  0  0  0  0  0  0  0
  -24.3632   12.9310   25.8904 H   0  0  0  0  0  0  0  0  0  0  0  0
  1  2  2  0
  2  3  1  0
  2 11  1  0
  3  4  1  0
  4  5  1  0
  4  6  1  0
  4  7  1  0
  7  8  1  0
  7  9  1  0
  7 10  1  0
 11 12  2  0
 11 17  1  0
 12 13  1  0
 12 14  1  0
 14 15  1  0
 14 16  1  0
 16 17  2  0
 17 18  1  0
M  END
$$$$
