F5_74
     RDKit          3D

 21 21  0  0  0  0  0  0  0  0999 V2000
  -21.4714   11.9821   27.3859 Br  0  0  0  0  0  0  0  0  0  0  0  0
  -22.6904   12.5887   28.7001 C   0  0  0  0  0  0  0  0  0  0  0  0
  -23.6102   13.5849   28.3911 C   0  0  0  0  0  0  0  0  0  0  0  0
  -23.6373   14.0137   27.4257 H   0  0  0  0  0  0  0  0  0  0  0  0
  -24.4989   14.0245   29.3677 C   0  0  0  0  0  0  0  0  0  0  0  0
  -25.3706   15.0227   29.0182 O   0  0  0  0  0  0  0  0  0  0  0  0
  -26.5078   14.6464   28.2043 C   0  0  0  0  0  0  0  0  0  0  0  0
  -26.9930   15.5575   27.8581 H   0  0  0  0  0  0  0  0  0  0  0  0
  -27.1843   14.0534   28.8180 H   0  0  0  0  0  0  0  0  0  0  0  0
  -26.1584   14.0590   27.3558 H   0  0  0  0  0  0  0  0  0  0  0  0
  -24.5001   13.4726   30.6562 C   0  0  0  0  0  0  0  0  0  0  0  0
  -25.4875   13.9028   31.7415 C   0  0  0  0  0  0  0  0  0  0  0  0
  -25.7907   13.0333   32.3038 H   0  0  0  0  0  0  0  0  0  0  0  0
  -26.3278   14.4298   31.3214 H   0  0  0  0  0  0  0  0  0  0  0  0
  -24.7858   14.8383   32.7000 C   0  0  0  0  0  0  0  0  0  0  0  0
  -24.9555   16.0675   32.5337 O   0  0  0  0  0  0  0  0  0  0  0  0
  -24.0385   14.3344   33.5679 O   0  0  0  0  0  0  0  0  0  0  0  0
  -23.5660   12.4804   30.9495 C   0  0  0  0  0  0  0  0  0  0  0  0
  -23.5380   12.0651   31.9269 H   0  0  0  0  0  0  0  0  0  0  0  0
  -22.6667   12.0399   29.9814 C   0  0  0  0  0  0  0  0  0  0  0  0
  -21.9613   11.2883   30.2228 H   0  0  0  0  0  0  0  0  0  0  0  0
  1  2  1  0
  2  3  1  0
  2 20  2  0
  3  4  1  0
  3  5  2  0
  5  6  1  0
  5 11  1  0
  6  7  1  0
  7  8  1  0
  7  9  1  0
  7 10  1  0
 11 12  1  0
 11 18  2  0
 12 13  1  0
 12 14  1  0
 12 15  1  0
 15 16  1  0
 15 17  2  0
 18 19  1  0
 18 20  1  0
 20 21  1  0
M  END
$$$$
