F763_18
     RDKit          3D

 19 19  0  0  0  0  0  0  0  0999 V2000
  -22.7401    9.6739   33.0956 Br  0  0  0  0  0  0  0  0  0  0  0  0
  -22.9900   10.6224   31.5032 C   0  0  0  0  0  0  0  0  0  0  0  0
  -23.3498   11.9353   31.5189 C   0  0  0  0  0  0  0  0  0  0  0  0
  -23.4998   12.4562   32.4260 H   0  0  0  0  0  0  0  0  0  0  0  0
  -23.5419   12.6557   30.3013 C   0  0  0  0  0  0  0  0  0  0  0  0
  -23.8879   13.8429   30.2462 O   0  0  0  0  0  0  0  0  0  0  0  0
  -23.3343   11.9716   29.0994 N   0  0  0  0  0  0  0  0  0  0  0  0
  -23.5123   12.6714   27.8259 C   0  0  0  0  0  0  0  0  0  0  0  0
  -23.4974   13.7541   28.0014 H   0  0  0  0  0  0  0  0  0  0  0  0
  -22.6593   12.4694   27.1648 H   0  0  0  0  0  0  0  0  0  0  0  0
  -24.8205   12.2902   27.1353 C   0  0  0  0  0  0  0  0  0  0  0  0
  -25.6810   12.4141   27.8007 H   0  0  0  0  0  0  0  0  0  0  0  0
  -24.7949   11.2420   26.8192 H   0  0  0  0  0  0  0  0  0  0  0  0
  -25.0216   13.0928   25.9778 O   0  0  0  0  0  0  0  0  0  0  0  0
  -24.2012   13.0576   25.4539 H   0  0  0  0  0  0  0  0  0  0  0  0
  -22.9721   10.6291   29.0848 C   0  0  0  0  0  0  0  0  0  0  0  0
  -22.8459   10.1925   28.1243 H   0  0  0  0  0  0  0  0  0  0  0  0
  -22.7993    9.9577   30.2593 C   0  0  0  0  0  0  0  0  0  0  0  0
  -22.5225    8.9346   30.2584 H   0  0  0  0  0  0  0  0  0  0  0  0
  1  2  1  0
  2  3  2  0
  2 18  1  0
  3  4  1  0
  3  5  1  0
  5  6  2  0
  5  7  1  0
  7  8  1  0
  7 16  1  0
  8  9  1  0
  8 10  1  0
  8 11  1  0
 11 12  1  0
 11 13  1  0
 11 14  1  0
 14 15  1  0
 16 17  1  0
 16 18  2  0
 18 19  1  0
M  END
$$$$
