F603_90
     RDKit          3D

 24 25  0  0  0  0  0  0  0  0999 V2000
  -25.2437   12.7532   28.1727 S   0  0  0  0  0  0  0  0  0  0  0  0
  -26.4905   12.3394   28.7854 O   0  0  0  0  0  0  0  0  0  0  0  0
  -24.8771   12.2880   26.8450 O   0  0  0  0  0  0  0  0  0  0  0  0
  -23.8966   12.3584   29.2760 C   0  0  0  0  0  0  0  0  0  0  0  0
  -23.8828   13.1095   30.0706 H   0  0  0  0  0  0  0  0  0  0  0  0
  -24.0933   11.3713   29.7031 H   0  0  0  0  0  0  0  0  0  0  0  0
  -22.6108   12.3749   28.5263 C   0  0  0  0  0  0  0  0  0  0  0  0
  -21.3980   12.1639   29.1241 N   0  0  0  0  0  0  0  0  0  0  0  0
  -21.2288   12.0111   30.1284 H   0  0  0  0  0  0  0  0  0  0  0  0
  -20.4433   12.1938   28.1620 C   0  0  0  0  0  0  0  0  0  0  0  0
  -21.1328   12.4250   26.9897 C   0  0  0  0  0  0  0  0  0  0  0  0
  -22.4825   12.5325   27.2507 N   0  0  0  0  0  0  0  0  0  0  0  0
  -20.4198   12.5115   25.7867 C   0  0  0  0  0  0  0  0  0  0  0  0
  -20.9421   12.6904   24.8836 H   0  0  0  0  0  0  0  0  0  0  0  0
  -19.0387   12.3634   25.8049 C   0  0  0  0  0  0  0  0  0  0  0  0
  -18.4893   12.4279   24.9013 H   0  0  0  0  0  0  0  0  0  0  0  0
  -18.3549   12.1262   27.0201 C   0  0  0  0  0  0  0  0  0  0  0  0
  -17.2998   12.0154   27.0114 H   0  0  0  0  0  0  0  0  0  0  0  0
  -19.0514   12.0389   28.2148 C   0  0  0  0  0  0  0  0  0  0  0  0
  -18.5519   11.8627   29.1324 H   0  0  0  0  0  0  0  0  0  0  0  0
  -25.2225   14.5276   28.1455 C   0  0  0  0  0  0  0  0  0  0  0  0
  -25.3950   14.8972   29.1577 H   0  0  0  0  0  0  0  0  0  0  0  0
  -26.0195   14.8681   27.4813 H   0  0  0  0  0  0  0  0  0  0  0  0
  -24.2539   14.8642   27.7696 H   0  0  0  0  0  0  0  0  0  0  0  0
  1  2  2  0
  1  3  2  0
  1  4  1  0
  1 21  1  0
  4  5  1  0
  4  6  1  0
  4  7  1  0
  7  8  1  0
  7 12  2  0
  8  9  1  0
  8 10  1  0
 10 11  1  0
 10 19  2  0
 11 12  1  0
 11 13  2  0
 13 14  1  0
 13 15  1  0
 15 16  1  0
 15 17  2  0
 17 18  1  0
 17 19  1  0
 19 20  1  0
 21 22  1  0
 21 23  1  0
 21 24  1  0
M  END
$$$$
