F763_24
     RDKit          3D

 19 19  0  0  0  0  0  0  0  0999 V2000
  -14.5217   17.1176   25.6478 Br  0  0  0  0  0  0  0  0  0  0  0  0
  -16.1705   17.7968   26.2118 C   0  0  0  0  0  0  0  0  0  0  0  0
  -17.1487   16.9692   26.6718 C   0  0  0  0  0  0  0  0  0  0  0  0
  -17.0085   15.9231   26.7230 H   0  0  0  0  0  0  0  0  0  0  0  0
  -18.4070   17.4910   27.0994 C   0  0  0  0  0  0  0  0  0  0  0  0
  -19.3435   16.7925   27.5084 O   0  0  0  0  0  0  0  0  0  0  0  0
  -18.5918   18.8760   27.0423 N   0  0  0  0  0  0  0  0  0  0  0  0
  -19.8631   19.4572   27.4772 C   0  0  0  0  0  0  0  0  0  0  0  0
  -20.1107   20.3110   26.8346 H   0  0  0  0  0  0  0  0  0  0  0  0
  -20.6757   18.7338   27.3301 H   0  0  0  0  0  0  0  0  0  0  0  0
  -19.8197   19.9173   28.9332 C   0  0  0  0  0  0  0  0  0  0  0  0
  -20.7898   20.3006   29.2661 H   0  0  0  0  0  0  0  0  0  0  0  0
  -19.0859   20.7204   29.0590 H   0  0  0  0  0  0  0  0  0  0  0  0
  -19.4412   18.8400   29.7821 O   0  0  0  0  0  0  0  0  0  0  0  0
  -20.0983   18.1311   29.6619 H   0  0  0  0  0  0  0  0  0  0  0  0
  -17.5937   19.7196   26.5670 C   0  0  0  0  0  0  0  0  0  0  0  0
  -17.8293   20.7557   26.5524 H   0  0  0  0  0  0  0  0  0  0  0  0
  -16.4009   19.2002   26.1579 C   0  0  0  0  0  0  0  0  0  0  0  0
  -15.6337   19.8352   25.7950 H   0  0  0  0  0  0  0  0  0  0  0  0
  1  2  1  0
  2  3  2  0
  2 18  1  0
  3  4  1  0
  3  5  1  0
  5  6  2  0
  5  7  1  0
  7  8  1  0
  7 16  1  0
  8  9  1  0
  8 10  1  0
  8 11  1  0
 11 12  1  0
 11 13  1  0
 11 14  1  0
 14 15  1  0
 16 17  1  0
 16 18  2  0
 18 19  1  0
M  END
$$$$
