F389_87
     RDKit          3D

 18 18  0  0  0  0  0  0  0  0999 V2000
  -23.0118   12.1747   26.8123 O   0  0  0  0  0  0  0  0  0  0  0  0
  -22.5101   12.2139   27.9265 C   0  0  0  0  0  0  0  0  0  0  0  0
  -21.1677   12.2754   28.1738 O   0  0  0  0  0  0  0  0  0  0  0  0
  -20.3061   12.2256   27.0260 C   0  0  0  0  0  0  0  0  0  0  0  0
  -20.6065   13.0450   26.3644 H   0  0  0  0  0  0  0  0  0  0  0  0
  -20.4422   11.2930   26.4671 H   0  0  0  0  0  0  0  0  0  0  0  0
  -18.8623   12.4142   27.4497 C   0  0  0  0  0  0  0  0  0  0  0  0
  -18.5388   11.6055   28.1127 H   0  0  0  0  0  0  0  0  0  0  0  0
  -18.7437   13.3487   28.0076 H   0  0  0  0  0  0  0  0  0  0  0  0
  -18.2021   12.4374   26.5781 H   0  0  0  0  0  0  0  0  0  0  0  0
  -23.3008   12.1954   29.1437 C   0  0  0  0  0  0  0  0  0  0  0  0
  -22.8652   11.9448   30.4116 C   0  0  0  0  0  0  0  0  0  0  0  0
  -21.9032   11.7175   30.7932 H   0  0  0  0  0  0  0  0  0  0  0  0
  -23.9499   12.0377   31.1984 N   0  0  0  0  0  0  0  0  0  0  0  0
  -23.9552   11.8996   32.2282 H   0  0  0  0  0  0  0  0  0  0  0  0
  -25.0718   12.3387   30.4892 N   0  0  0  0  0  0  0  0  0  0  0  0
  -24.6722   12.4315   29.2521 C   0  0  0  0  0  0  0  0  0  0  0  0
  -25.3208   12.6592   28.4437 H   0  0  0  0  0  0  0  0  0  0  0  0
  1  2  2  0
  2  3  1  0
  2 11  1  0
  3  4  1  0
  4  5  1  0
  4  6  1  0
  4  7  1  0
  7  8  1  0
  7  9  1  0
  7 10  1  0
 11 12  2  0
 11 17  1  0
 12 13  1  0
 12 14  1  0
 14 15  1  0
 14 16  1  0
 16 17  2  0
 17 18  1  0
M  END
$$$$
