F603_60
     RDKit          3D

 24 25  0  0  0  0  0  0  0  0999 V2000
  -25.1387   13.8326   28.1636 S   0  0  0  0  0  0  0  0  0  0  0  0
  -26.5433   13.6068   28.4416 O   0  0  0  0  0  0  0  0  0  0  0  0
  -24.7198   14.4929   26.9381 O   0  0  0  0  0  0  0  0  0  0  0  0
  -24.2704   12.2757   28.2640 C   0  0  0  0  0  0  0  0  0  0  0  0
  -24.2973   11.9432   29.3054 H   0  0  0  0  0  0  0  0  0  0  0  0
  -24.7995   11.5571   27.6321 H   0  0  0  0  0  0  0  0  0  0  0  0
  -22.8628   12.4547   27.8144 C   0  0  0  0  0  0  0  0  0  0  0  0
  -22.1218   11.4424   27.2675 N   0  0  0  0  0  0  0  0  0  0  0  0
  -22.4207   10.4652   27.1390 H   0  0  0  0  0  0  0  0  0  0  0  0
  -20.9113   11.9458   26.9221 C   0  0  0  0  0  0  0  0  0  0  0  0
  -20.9690   13.2768   27.2798 C   0  0  0  0  0  0  0  0  0  0  0  0
  -22.1993   13.5628   27.8329 N   0  0  0  0  0  0  0  0  0  0  0  0
  -19.8535   14.0926   27.0486 C   0  0  0  0  0  0  0  0  0  0  0  0
  -19.8901   15.1144   27.3222 H   0  0  0  0  0  0  0  0  0  0  0  0
  -18.7191   13.5410   26.4667 C   0  0  0  0  0  0  0  0  0  0  0  0
  -17.8696   14.1482   26.2881 H   0  0  0  0  0  0  0  0  0  0  0  0
  -18.6852   12.1732   26.1081 C   0  0  0  0  0  0  0  0  0  0  0  0
  -17.8089   11.7724   25.6640 H   0  0  0  0  0  0  0  0  0  0  0  0
  -19.7835   11.3586   26.3326 C   0  0  0  0  0  0  0  0  0  0  0  0
  -19.7714   10.3323   26.0700 H   0  0  0  0  0  0  0  0  0  0  0  0
  -24.4628   14.7481   29.5256 C   0  0  0  0  0  0  0  0  0  0  0  0
  -24.6793   14.2127   30.4516 H   0  0  0  0  0  0  0  0  0  0  0  0
  -24.9351   15.7325   29.5427 H   0  0  0  0  0  0  0  0  0  0  0  0
  -23.3854   14.8533   29.3813 H   0  0  0  0  0  0  0  0  0  0  0  0
  1  2  2  0
  1  3  2  0
  1  4  1  0
  1 21  1  0
  4  5  1  0
  4  6  1  0
  4  7  1  0
  7  8  1  0
  7 12  2  0
  8  9  1  0
  8 10  1  0
 10 11  1  0
 10 19  2  0
 11 12  1  0
 11 13  2  0
 13 14  1  0
 13 15  1  0
 15 16  1  0
 15 17  2  0
 17 18  1  0
 17 19  1  0
 19 20  1  0
 21 22  1  0
 21 23  1  0
 21 24  1  0
M  END
$$$$
