F362_57
     RDKit          3D

 30 31  0  0  0  0  0  0  0  0999 V2000
  -24.5068   14.3306   31.6482 N   0  0  0  0  0  0  0  0  0  0  0  0
  -24.4695   15.6626   32.2821 C   0  0  0  0  0  0  0  0  0  0  0  0
  -25.3214   16.2779   31.9799 H   0  0  0  0  0  0  0  0  0  0  0  0
  -24.5860   15.5597   33.3684 H   0  0  0  0  0  0  0  0  0  0  0  0
  -23.1437   16.3576   32.0100 C   0  0  0  0  0  0  0  0  0  0  0  0
  -22.9422   16.4583   30.9402 H   0  0  0  0  0  0  0  0  0  0  0  0
  -22.3109   15.7960   32.4474 H   0  0  0  0  0  0  0  0  0  0  0  0
  -23.1430   17.3587   32.4534 H   0  0  0  0  0  0  0  0  0  0  0  0
  -24.7354   13.2352   32.6119 C   0  0  0  0  0  0  0  0  0  0  0  0
  -23.8528   13.0717   33.2398 H   0  0  0  0  0  0  0  0  0  0  0  0
  -25.5366   13.5055   33.3116 H   0  0  0  0  0  0  0  0  0  0  0  0
  -25.1248   11.9519   31.8915 C   0  0  0  0  0  0  0  0  0  0  0  0
  -24.3372   11.6180   31.2094 H   0  0  0  0  0  0  0  0  0  0  0  0
  -26.0366   12.0922   31.3026 H   0  0  0  0  0  0  0  0  0  0  0  0
  -25.3075   11.1526   32.6164 H   0  0  0  0  0  0  0  0  0  0  0  0
  -24.3390   14.1028   30.2361 C   0  0  0  0  0  0  0  0  0  0  0  0
  -25.2441   14.6563   29.2589 N   0  0  0  0  0  0  0  0  0  0  0  0
  -26.3358   15.4344   29.4283 N   0  0  0  0  0  0  0  0  0  0  0  0
  -26.7392   15.6195   28.2093 C   0  0  0  0  0  0  0  0  0  0  0  0
  -27.5982   16.2024   27.9826 H   0  0  0  0  0  0  0  0  0  0  0  0
  -26.0093   15.0322   27.2553 N   0  0  0  0  0  0  0  0  0  0  0  0
  -25.0662   14.4263   27.9171 C   0  0  0  0  0  0  0  0  0  0  0  0
  -24.0281   13.6598   27.4153 N   0  0  0  0  0  0  0  0  0  0  0  0
  -23.1907   13.1427   28.2542 C   0  0  0  0  0  0  0  0  0  0  0  0
  -22.0537   12.3064   27.7345 C   0  0  0  0  0  0  0  0  0  0  0  0
  -21.4307   11.9267   28.5475 H   0  0  0  0  0  0  0  0  0  0  0  0
  -21.4350   12.9134   27.0675 H   0  0  0  0  0  0  0  0  0  0  0  0
  -22.4574   11.4589   27.1724 H   0  0  0  0  0  0  0  0  0  0  0  0
  -23.3047   13.3420   29.7229 C   0  0  0  0  0  0  0  0  0  0  0  0
  -22.6019   12.8911   30.3659 H   0  0  0  0  0  0  0  0  0  0  0  0
  1  2  1  0
  1  9  1  0
  1 16  1  0
  2  3  1  0
  2  4  1  0
  2  5  1  0
  5  6  1  0
  5  7  1  0
  5  8  1  0
  9 10  1  0
  9 11  1  0
  9 12  1  0
 12 13  1  0
 12 14  1  0
 12 15  1  0
 16 17  1  0
 16 29  2  0
 17 18  1  0
 17 22  1  0
 18 19  2  0
 19 20  1  0
 19 21  1  0
 21 22  2  0
 22 23  1  0
 23 24  2  0
 24 25  1  0
 24 29  1  0
 25 26  1  0
 25 27  1  0
 25 28  1  0
 29 30  1  0
M  END
$$$$
