F603_45
     RDKit          3D

 24 25  0  0  0  0  0  0  0  0999 V2000
  -18.6077   14.2269   26.8696 S   0  0  0  0  0  0  0  0  0  0  0  0
  -17.2702   14.4105   27.3972 O   0  0  0  0  0  0  0  0  0  0  0  0
  -19.6900   15.1152   27.2607 O   0  0  0  0  0  0  0  0  0  0  0  0
  -19.1355   12.5531   27.1976 C   0  0  0  0  0  0  0  0  0  0  0  0
  -19.0669   11.9904   26.2625 H   0  0  0  0  0  0  0  0  0  0  0  0
  -18.4524   12.1266   27.9372 H   0  0  0  0  0  0  0  0  0  0  0  0
  -20.5375   12.5564   27.6976 C   0  0  0  0  0  0  0  0  0  0  0  0
  -21.6242   12.5402   26.8660 N   0  0  0  0  0  0  0  0  0  0  0  0
  -21.6077   12.5603   25.8364 H   0  0  0  0  0  0  0  0  0  0  0  0
  -22.7411   12.4968   27.6332 C   0  0  0  0  0  0  0  0  0  0  0  0
  -22.2754   12.4855   28.9316 C   0  0  0  0  0  0  0  0  0  0  0  0
  -20.8970   12.5228   28.9378 N   0  0  0  0  0  0  0  0  0  0  0  0
  -23.1980   12.4407   29.9852 C   0  0  0  0  0  0  0  0  0  0  0  0
  -22.8479   12.4335   30.9840 H   0  0  0  0  0  0  0  0  0  0  0  0
  -24.5564   12.4096   29.6959 C   0  0  0  0  0  0  0  0  0  0  0  0
  -25.2630   12.3766   30.4847 H   0  0  0  0  0  0  0  0  0  0  0  0
  -25.0087   12.4213   28.3559 C   0  0  0  0  0  0  0  0  0  0  0  0
  -26.0507   12.3962   28.1572 H   0  0  0  0  0  0  0  0  0  0  0  0
  -24.1038   12.4654   27.3073 C   0  0  0  0  0  0  0  0  0  0  0  0
  -24.4287   12.4757   26.2989 H   0  0  0  0  0  0  0  0  0  0  0  0
  -18.4954   14.2637   25.0987 C   0  0  0  0  0  0  0  0  0  0  0  0
  -17.7573   13.5268   24.7775 H   0  0  0  0  0  0  0  0  0  0  0  0
  -18.1808   15.2651   24.7977 H   0  0  0  0  0  0  0  0  0  0  0  0
  -19.4773   14.0383   24.6771 H   0  0  0  0  0  0  0  0  0  0  0  0
  1  2  2  0
  1  3  2  0
  1  4  1  0
  1 21  1  0
  4  5  1  0
  4  6  1  0
  4  7  1  0
  7  8  1  0
  7 12  2  0
  8  9  1  0
  8 10  1  0
 10 11  1  0
 10 19  2  0
 11 12  1  0
 11 13  2  0
 13 14  1  0
 13 15  1  0
 15 16  1  0
 15 17  2  0
 17 18  1  0
 17 19  1  0
 19 20  1  0
 21 22  1  0
 21 23  1  0
 21 24  1  0
M  END
$$$$
