F179_64
     RDKit          3D

 29 30  0  0  0  0  0  0  0  0999 V2000
  -19.3637   13.2529   26.3890 C   0  0  0  0  0  0  0  0  0  0  0  0
  -19.9543   13.3016   25.4689 H   0  0  0  0  0  0  0  0  0  0  0  0
  -18.3065   13.1516   26.1187 H   0  0  0  0  0  0  0  0  0  0  0  0
  -19.4638   14.2095   26.9136 H   0  0  0  0  0  0  0  0  0  0  0  0
  -19.8026   12.0922   27.2762 C   0  0  0  0  0  0  0  0  0  0  0  0
  -18.9775   12.0719   28.4415 O   0  0  0  0  0  0  0  0  0  0  0  0
  -18.0588   11.9594   28.1432 H   0  0  0  0  0  0  0  0  0  0  0  0
  -21.2484   12.1859   27.6442 C   0  0  0  0  0  0  0  0  0  0  0  0
  -22.2015   11.1788   27.5457 C   0  0  0  0  0  0  0  0  0  0  0  0
  -22.0213   10.1984   27.1807 H   0  0  0  0  0  0  0  0  0  0  0  0
  -23.3692   11.5879   27.9630 N   0  0  0  0  0  0  0  0  0  0  0  0
  -23.1772   12.8850   28.3354 N   0  0  0  0  0  0  0  0  0  0  0  0
  -24.2635   13.6801   28.8535 C   0  0  0  0  0  0  0  0  0  0  0  0
  -24.6246   14.3134   28.0307 H   0  0  0  0  0  0  0  0  0  0  0  0
  -25.4364   12.8709   29.4050 C   0  0  0  0  0  0  0  0  0  0  0  0
  -26.0477   12.4302   28.6108 H   0  0  0  0  0  0  0  0  0  0  0  0
  -25.0927   12.0515   30.0475 H   0  0  0  0  0  0  0  0  0  0  0  0
  -26.2209   13.8785   30.2402 C   0  0  0  0  0  0  0  0  0  0  0  0
  -27.0348   14.3133   29.6484 H   0  0  0  0  0  0  0  0  0  0  0  0
  -26.6729   13.4013   31.1160 H   0  0  0  0  0  0  0  0  0  0  0  0
  -25.2290   14.9724   30.6368 C   0  0  0  0  0  0  0  0  0  0  0  0
  -25.1614   15.0861   31.7242 H   0  0  0  0  0  0  0  0  0  0  0  0
  -25.5565   15.9355   30.2268 H   0  0  0  0  0  0  0  0  0  0  0  0
  -23.8865   14.5708   30.0354 C   0  0  0  0  0  0  0  0  0  0  0  0
  -23.2984   14.0201   30.7804 H   0  0  0  0  0  0  0  0  0  0  0  0
  -23.2953   15.4409   29.7300 H   0  0  0  0  0  0  0  0  0  0  0  0
  -21.8926   13.2636   28.1495 C   0  0  0  0  0  0  0  0  0  0  0  0
  -21.5511   14.2369   28.3888 H   0  0  0  0  0  0  0  0  0  0  0  0
  -19.6293   11.1471   26.7459 H   0  0  0  0  0  0  0  0  0  0  0  0
  1  2  1  0
  1  3  1  0
  1  4  1  0
  1  5  1  0
  5  6  1  0
  5  8  1  0
  5 29  1  0
  6  7  1  0
  8  9  1  0
  8 27  2  0
  9 10  1  0
  9 11  2  0
 11 12  1  0
 12 13  1  0
 12 27  1  0
 13 14  1  0
 13 15  1  0
 13 24  1  0
 15 16  1  0
 15 17  1  0
 15 18  1  0
 18 19  1  0
 18 20  1  0
 18 21  1  0
 21 22  1  0
 21 23  1  0
 21 24  1  0
 24 25  1  0
 24 26  1  0
 27 28  1  0
M  END
$$$$
