F126_46
     RDKit          3D

 23 23  0  0  0  0  0  0  0  0999 V2000
  -26.7787   16.9952   28.4077 Cl  0  0  0  0  0  0  0  0  0  0  0  0
  -25.5558   15.7970   28.5913 C   0  0  0  0  0  0  0  0  0  0  0  0
  -24.4309   15.9560   29.4163 C   0  0  0  0  0  0  0  0  0  0  0  0
  -24.1272   17.1469   30.2373 C   0  0  0  0  0  0  0  0  0  0  0  0
  -24.8453   18.1007   30.4980 O   0  0  0  0  0  0  0  0  0  0  0  0
  -22.8931   17.2346   30.7940 N   0  0  0  0  0  0  0  0  0  0  0  0
  -22.6709   18.0620   31.3608 H   0  0  0  0  0  0  0  0  0  0  0  0
  -22.2072   16.4863   30.6322 H   0  0  0  0  0  0  0  0  0  0  0  0
  -23.5329   14.9409   29.4823 N   0  0  0  0  0  0  0  0  0  0  0  0
  -23.7141   13.8303   28.7844 C   0  0  0  0  0  0  0  0  0  0  0  0
  -22.6859   12.7330   28.8934 C   0  0  0  0  0  0  0  0  0  0  0  0
  -21.6979   13.1973   29.0048 H   0  0  0  0  0  0  0  0  0  0  0  0
  -22.9381   11.8692   30.1278 C   0  0  0  0  0  0  0  0  0  0  0  0
  -23.9035   11.3522   30.0718 H   0  0  0  0  0  0  0  0  0  0  0  0
  -22.9417   12.4788   31.0387 H   0  0  0  0  0  0  0  0  0  0  0  0
  -22.1568   11.1093   30.2350 H   0  0  0  0  0  0  0  0  0  0  0  0
  -22.6602   11.8827   27.6232 C   0  0  0  0  0  0  0  0  0  0  0  0
  -23.6128   11.3657   27.4619 H   0  0  0  0  0  0  0  0  0  0  0  0
  -21.8726   11.1234   27.6818 H   0  0  0  0  0  0  0  0  0  0  0  0
  -22.4654   12.5020   26.7411 H   0  0  0  0  0  0  0  0  0  0  0  0
  -24.7766   13.6581   27.9924 N   0  0  0  0  0  0  0  0  0  0  0  0
  -25.6876   14.6074   27.8846 C   0  0  0  0  0  0  0  0  0  0  0  0
  -26.5236   14.4507   27.2504 H   0  0  0  0  0  0  0  0  0  0  0  0
  1  2  1  0
  2  3  1  0
  2 22  2  0
  3  4  1  0
  3  9  2  0
  4  5  2  0
  4  6  1  0
  6  7  1  0
  6  8  1  0
  9 10  1  0
 10 11  1  0
 10 21  2  0
 11 12  1  0
 11 13  1  0
 11 17  1  0
 13 14  1  0
 13 15  1  0
 13 16  1  0
 17 18  1  0
 17 19  1  0
 17 20  1  0
 21 22  1  0
 22 23  1  0
M  END
$$$$
