F600_37
     RDKit          3D

 16 16  0  0  0  0  0  0  0  0999 V2000
  -21.8078   12.1490   27.0552 O   0  0  0  0  0  0  0  0  0  0  0  0
  -20.7933   12.9822   27.6163 C   0  0  0  0  0  0  0  0  0  0  0  0
  -21.2572   13.8446   28.1105 H   0  0  0  0  0  0  0  0  0  0  0  0
  -20.2122   12.4210   28.3569 H   0  0  0  0  0  0  0  0  0  0  0  0
  -19.9210   13.4465   26.5001 C   0  0  0  0  0  0  0  0  0  0  0  0
  -19.1499   12.3261   25.4588 S   0  0  0  0  0  0  0  0  0  0  0  0
  -18.4794   13.6768   24.6718 C   0  0  0  0  0  0  0  0  0  0  0  0
  -17.6641   13.5110   23.6166 N   0  0  0  0  0  0  0  0  0  0  0  0
  -17.4254   12.5956   23.2562 H   0  0  0  0  0  0  0  0  0  0  0  0
  -17.2646   14.3156   23.1486 H   0  0  0  0  0  0  0  0  0  0  0  0
  -18.8042   14.8338   25.1579 N   0  0  0  0  0  0  0  0  0  0  0  0
  -19.6539   14.6899   26.2350 N   0  0  0  0  0  0  0  0  0  0  0  0
  -22.7363   11.7195   28.0409 C   0  0  0  0  0  0  0  0  0  0  0  0
  -23.4858   11.0879   27.5559 H   0  0  0  0  0  0  0  0  0  0  0  0
  -23.2424   12.5787   28.4911 H   0  0  0  0  0  0  0  0  0  0  0  0
  -22.2309   11.1314   28.8129 H   0  0  0  0  0  0  0  0  0  0  0  0
  1  2  1  0
  1 13  1  0
  2  3  1  0
  2  4  1  0
  2  5  1  0
  5  6  1  0
  5 12  2  0
  6  7  1  0
  7  8  1  0
  7 11  2  0
  8  9  1  0
  8 10  1  0
 11 12  1  0
 13 14  1  0
 13 15  1  0
 13 16  1  0
M  END
$$$$
