F393_2
     RDKit          3D

 24 24  0  0  0  0  0  0  0  0999 V2000
  -23.5924   12.7753   26.3478 O   0  0  0  0  0  0  0  0  0  0  0  0
  -23.2558   13.2973   27.4033 C   0  0  0  0  0  0  0  0  0  0  0  0
  -21.9907   13.2666   27.9034 O   0  0  0  0  0  0  0  0  0  0  0  0
  -21.0536   12.5128   27.1237 C   0  0  0  0  0  0  0  0  0  0  0  0
  -21.3452   11.4571   27.1153 H   0  0  0  0  0  0  0  0  0  0  0  0
  -21.0321   12.8994   26.0989 H   0  0  0  0  0  0  0  0  0  0  0  0
  -19.6843   12.6615   27.7572 C   0  0  0  0  0  0  0  0  0  0  0  0
  -19.6963   12.3016   28.7918 H   0  0  0  0  0  0  0  0  0  0  0  0
  -19.3883   13.7156   27.7898 H   0  0  0  0  0  0  0  0  0  0  0  0
  -18.9314   12.1001   27.1965 H   0  0  0  0  0  0  0  0  0  0  0  0
  -24.1368   13.9798   28.2016 N   0  0  0  0  0  0  0  0  0  0  0  0
  -25.5399   14.1342   27.8192 C   0  0  0  0  0  0  0  0  0  0  0  0
  -25.6757   15.1911   27.5616 H   0  0  0  0  0  0  0  0  0  0  0  0
  -25.7823   13.5350   26.9357 H   0  0  0  0  0  0  0  0  0  0  0  0
  -26.4574   13.7610   28.9835 C   0  0  0  0  0  0  0  0  0  0  0  0
  -26.3947   12.6896   29.2099 H   0  0  0  0  0  0  0  0  0  0  0  0
  -27.4975   13.9912   28.7308 H   0  0  0  0  0  0  0  0  0  0  0  0
  -26.1180   14.5073   30.1613 O   0  0  0  0  0  0  0  0  0  0  0  0
  -24.7674   14.2351   30.5651 C   0  0  0  0  0  0  0  0  0  0  0  0
  -24.5674   14.8130   31.4729 H   0  0  0  0  0  0  0  0  0  0  0  0
  -24.6791   13.1710   30.8170 H   0  0  0  0  0  0  0  0  0  0  0  0
  -23.7781   14.6259   29.4661 C   0  0  0  0  0  0  0  0  0  0  0  0
  -22.7579   14.3819   29.7747 H   0  0  0  0  0  0  0  0  0  0  0  0
  -23.8289   15.7057   29.2855 H   0  0  0  0  0  0  0  0  0  0  0  0
  1  2  2  0
  2  3  1  0
  2 11  1  0
  3  4  1  0
  4  5  1  0
  4  6  1  0
  4  7  1  0
  7  8  1  0
  7  9  1  0
  7 10  1  0
 11 12  1  0
 11 22  1  0
 12 13  1  0
 12 14  1  0
 12 15  1  0
 15 16  1  0
 15 17  1  0
 15 18  1  0
 18 19  1  0
 19 20  1  0
 19 21  1  0
 19 22  1  0
 22 23  1  0
 22 24  1  0
M  END
$$$$
