F205_4
     RDKit          3D

 20 20  0  0  0  0  0  0  0  0999 V2000
  -25.5454   14.1099   26.7626 O   0  0  0  0  0  0  0  0  0  0  0  0
  -24.9288   13.8236   27.8075 C   0  0  0  0  0  0  0  0  0  0  0  0
  -24.8020   14.8014   28.8130 N   0  0  0  0  0  0  0  0  0  0  0  0
  -25.3951   16.1192   28.6071 C   0  0  0  0  0  0  0  0  0  0  0  0
  -26.1193   16.3188   29.4026 H   0  0  0  0  0  0  0  0  0  0  0  0
  -25.9188   16.1945   27.6499 H   0  0  0  0  0  0  0  0  0  0  0  0
  -24.6041   16.8759   28.6191 H   0  0  0  0  0  0  0  0  0  0  0  0
  -24.1006   14.5232   30.0085 C   0  0  0  0  0  0  0  0  0  0  0  0
  -23.9577   15.5942   31.0539 C   0  0  0  0  0  0  0  0  0  0  0  0
  -23.4214   16.4598   30.6515 H   0  0  0  0  0  0  0  0  0  0  0  0
  -23.3930   15.2408   31.9235 H   0  0  0  0  0  0  0  0  0  0  0  0
  -24.9376   15.9184   31.4165 H   0  0  0  0  0  0  0  0  0  0  0  0
  -23.5716   13.2778   30.2056 C   0  0  0  0  0  0  0  0  0  0  0  0
  -23.0500   13.0611   31.1020 H   0  0  0  0  0  0  0  0  0  0  0  0
  -23.6923   12.2525   29.2293 C   0  0  0  0  0  0  0  0  0  0  0  0
  -23.2661   11.2992   29.4075 H   0  0  0  0  0  0  0  0  0  0  0  0
  -24.3442   12.5130   28.0606 C   0  0  0  0  0  0  0  0  0  0  0  0
  -24.4913   11.5769   27.0671 N   0  0  0  0  0  0  0  0  0  0  0  0
  -24.1169   10.6441   27.1625 H   0  0  0  0  0  0  0  0  0  0  0  0
  -24.9943   11.8589   26.2290 H   0  0  0  0  0  0  0  0  0  0  0  0
  1  2  2  0
  2  3  1  0
  2 17  1  0
  3  4  1  0
  3  8  1  0
  4  5  1  0
  4  6  1  0
  4  7  1  0
  8  9  1  0
  8 13  2  0
  9 10  1  0
  9 11  1  0
  9 12  1  0
 13 14  1  0
 13 15  1  0
 15 16  1  0
 15 17  2  0
 17 18  1  0
 18 19  1  0
 18 20  1  0
M  END
$$$$
