F374_50
     RDKit          3D

 18 18  0  0  0  0  0  0  0  0999 V2000
  -22.4425   11.0831   27.8594 O   0  0  0  0  0  0  0  0  0  0  0  0
  -21.7581   12.1048   27.8762 C   0  0  0  0  0  0  0  0  0  0  0  0
  -22.2508   13.1787   28.5659 N   0  0  0  0  0  0  0  0  0  0  0  0
  -21.6411   14.0067   28.6243 H   0  0  0  0  0  0  0  0  0  0  0  0
  -23.5450   13.1860   29.2145 C   0  0  0  0  0  0  0  0  0  0  0  0
  -24.2917   12.8278   28.4970 H   0  0  0  0  0  0  0  0  0  0  0  0
  -23.5091   12.4764   30.0472 H   0  0  0  0  0  0  0  0  0  0  0  0
  -23.9130   14.5697   29.7132 C   0  0  0  0  0  0  0  0  0  0  0  0
  -24.8926   14.5524   30.2002 H   0  0  0  0  0  0  0  0  0  0  0  0
  -23.1758   14.9337   30.4365 H   0  0  0  0  0  0  0  0  0  0  0  0
  -23.9513   15.2858   28.8857 H   0  0  0  0  0  0  0  0  0  0  0  0
  -20.4667   12.2709   27.2563 C   0  0  0  0  0  0  0  0  0  0  0  0
  -19.6777   13.3681   27.4474 N   0  0  0  0  0  0  0  0  0  0  0  0
  -18.5862   13.1978   26.7446 N   0  0  0  0  0  0  0  0  0  0  0  0
  -18.6807   12.0142   26.1203 N   0  0  0  0  0  0  0  0  0  0  0  0
  -17.9393   11.6421   25.4978 H   0  0  0  0  0  0  0  0  0  0  0  0
  -19.8282   11.4197   26.4159 C   0  0  0  0  0  0  0  0  0  0  0  0
  -20.1091   10.4730   26.0322 H   0  0  0  0  0  0  0  0  0  0  0  0
  1  2  2  0
  2  3  1  0
  2 12  1  0
  3  4  1  0
  3  5  1  0
  5  6  1  0
  5  7  1  0
  5  8  1  0
  8  9  1  0
  8 10  1  0
  8 11  1  0
 12 13  1  0
 12 17  2  0
 13 14  2  0
 14 15  1  0
 15 16  1  0
 15 17  1  0
 17 18  1  0
M  END
$$$$
