F535_68
     RDKit          3D

 23 24  0  0  0  0  0  0  0  0999 V2000
  -16.3444   16.3489   25.9821 N   0  0  0  0  0  0  0  0  0  0  0  0
  -15.8327   15.4642   26.1214 H   0  0  0  0  0  0  0  0  0  0  0  0
  -16.1919   16.5727   24.9885 H   0  0  0  0  0  0  0  0  0  0  0  0
  -17.8052   16.0729   26.1760 C   0  0  0  0  0  0  0  0  0  0  0  0
  -17.9516   15.8777   27.2424 H   0  0  0  0  0  0  0  0  0  0  0  0
  -18.3402   16.9836   25.8859 H   0  0  0  0  0  0  0  0  0  0  0  0
  -18.2403   14.9188   25.3571 C   0  0  0  0  0  0  0  0  0  0  0  0
  -18.8600   13.8246   25.8188 N   0  0  0  0  0  0  0  0  0  0  0  0
  -19.0733   13.0229   24.7502 C   0  0  0  0  0  0  0  0  0  0  0  0
  -18.6024   13.6168   23.6777 N   0  0  0  0  0  0  0  0  0  0  0  0
  -18.0843   14.8089   24.0688 N   0  0  0  0  0  0  0  0  0  0  0  0
  -19.7232   11.7683   24.9502 C   0  0  0  0  0  0  0  0  0  0  0  0
  -19.8892   11.1384   24.1142 H   0  0  0  0  0  0  0  0  0  0  0  0
  -20.1175   11.3997   26.2044 C   0  0  0  0  0  0  0  0  0  0  0  0
  -20.6013   10.4698   26.3693 H   0  0  0  0  0  0  0  0  0  0  0  0
  -19.8776   12.2751   27.3097 C   0  0  0  0  0  0  0  0  0  0  0  0
  -20.1926   11.9735   28.2781 H   0  0  0  0  0  0  0  0  0  0  0  0
  -19.2542   13.4778   27.1231 C   0  0  0  0  0  0  0  0  0  0  0  0
  -19.0392   14.1828   27.8827 H   0  0  0  0  0  0  0  0  0  0  0  0
  -15.7790   17.4122   26.8453 C   0  0  0  0  0  0  0  0  0  0  0  0
  -15.9088   17.1148   27.8878 H   0  0  0  0  0  0  0  0  0  0  0  0
  -16.3045   18.3453   26.6294 H   0  0  0  0  0  0  0  0  0  0  0  0
  -14.7182   17.5045   26.6009 H   0  0  0  0  0  0  0  0  0  0  0  0
  1  2  1  0
  1  3  1  0
  1  4  1  0
  1 20  1  0
  4  5  1  0
  4  6  1  0
  4  7  1  0
  7  8  1  0
  7 11  2  0
  8  9  1  0
  8 18  1  0
  9 10  2  0
  9 12  1  0
 10 11  1  0
 12 13  1  0
 12 14  2  0
 14 15  1  0
 14 16  1  0
 16 17  1  0
 16 18  2  0
 18 19  1  0
 20 21  1  0
 20 22  1  0
 20 23  1  0
M  END
$$$$
