F558_7
     RDKit          3D

 32 33  0  0  0  0  0  0  0  0999 V2000
  -18.0602   16.0664   26.9590 O   0  0  0  0  0  0  0  0  0  0  0  0
  -17.5298   15.2397   26.2318 C   0  0  0  0  0  0  0  0  0  0  0  0
  -16.3666   15.4202   25.5525 O   0  0  0  0  0  0  0  0  0  0  0  0
  -15.6360   16.5887   25.9322 C   0  0  0  0  0  0  0  0  0  0  0  0
  -15.3676   16.5450   26.9918 H   0  0  0  0  0  0  0  0  0  0  0  0
  -16.2198   17.4897   25.7163 H   0  0  0  0  0  0  0  0  0  0  0  0
  -14.7172   16.6200   25.3409 H   0  0  0  0  0  0  0  0  0  0  0  0
  -18.0254   14.0036   25.9506 N   0  0  0  0  0  0  0  0  0  0  0  0
  -17.4707   13.4876   25.2613 H   0  0  0  0  0  0  0  0  0  0  0  0
  -19.1765   13.3638   26.4593 C   0  0  0  0  0  0  0  0  0  0  0  0
  -20.1078   14.0044   27.2801 C   0  0  0  0  0  0  0  0  0  0  0  0
  -19.9748   15.0150   27.5618 H   0  0  0  0  0  0  0  0  0  0  0  0
  -21.2156   13.2986   27.7368 C   0  0  0  0  0  0  0  0  0  0  0  0
  -21.9212   13.7852   28.3610 H   0  0  0  0  0  0  0  0  0  0  0  0
  -21.4012   11.9599   27.3859 C   0  0  0  0  0  0  0  0  0  0  0  0
  -22.5972   11.1929   27.9039 C   0  0  0  0  0  0  0  0  0  0  0  0
  -22.2829   10.5498   28.7367 H   0  0  0  0  0  0  0  0  0  0  0  0
  -22.9540   10.4940   27.1357 H   0  0  0  0  0  0  0  0  0  0  0  0
  -23.7343   12.0807   28.3423 C   0  0  0  0  0  0  0  0  0  0  0  0
  -24.5262   12.7504   27.4170 C   0  0  0  0  0  0  0  0  0  0  0  0
  -24.3565   12.6359   26.3787 H   0  0  0  0  0  0  0  0  0  0  0  0
  -25.5524   13.5805   27.8569 C   0  0  0  0  0  0  0  0  0  0  0  0
  -26.1607   14.0962   27.1570 H   0  0  0  0  0  0  0  0  0  0  0  0
  -25.8060   13.7585   29.1515 N   0  0  0  0  0  0  0  0  0  0  0  0
  -25.0587   13.1293   30.0565 C   0  0  0  0  0  0  0  0  0  0  0  0
  -25.2785   13.2904   31.0822 H   0  0  0  0  0  0  0  0  0  0  0  0
  -24.0161   12.2854   29.6875 C   0  0  0  0  0  0  0  0  0  0  0  0
  -23.4382   11.8061   30.4353 H   0  0  0  0  0  0  0  0  0  0  0  0
  -20.4560   11.3270   26.5747 C   0  0  0  0  0  0  0  0  0  0  0  0
  -20.5823   10.3102   26.3045 H   0  0  0  0  0  0  0  0  0  0  0  0
  -19.3445   12.0236   26.1123 C   0  0  0  0  0  0  0  0  0  0  0  0
  -18.6336   11.5399   25.4939 H   0  0  0  0  0  0  0  0  0  0  0  0
  1  2  2  0
  2  3  1  0
  2  8  1  0
  3  4  1  0
  4  5  1  0
  4  6  1  0
  4  7  1  0
  8  9  1  0
  8 10  1  0
 10 11  1  0
 10 31  2  0
 11 12  1  0
 11 13  2  0
 13 14  1  0
 13 15  1  0
 15 16  1  0
 15 29  2  0
 16 17  1  0
 16 18  1  0
 16 19  1  0
 19 20  1  0
 19 27  2  0
 20 21  1  0
 20 22  2  0
 22 23  1  0
 22 24  1  0
 24 25  2  0
 25 26  1  0
 25 27  1  0
 27 28  1  0
 29 30  1  0
 29 31  1  0
 31 32  1  0
M  END
$$$$
