F687_67
     RDKit          3D

 24 25  0  0  0  0  0  0  0  0999 V2000
  -19.9469   11.1273   24.9346 F   0  0  0  0  0  0  0  0  0  0  0  0
  -19.6247   12.4146   25.1345 C   0  0  0  0  0  0  0  0  0  0  0  0
  -19.8639   13.0316   26.3788 C   0  0  0  0  0  0  0  0  0  0  0  0
  -20.4302   12.3822   27.4610 N   0  0  0  0  0  0  0  0  0  0  0  0
  -20.0964   11.4680   27.7513 H   0  0  0  0  0  0  0  0  0  0  0  0
  -21.5208   12.8933   28.2788 C   0  0  0  0  0  0  0  0  0  0  0  0
  -21.5306   12.3640   29.2401 H   0  0  0  0  0  0  0  0  0  0  0  0
  -21.3537   13.9584   28.4793 H   0  0  0  0  0  0  0  0  0  0  0  0
  -22.8904   12.7556   27.6725 C   0  0  0  0  0  0  0  0  0  0  0  0
  -23.2571   11.6592   27.0538 N   0  0  0  0  0  0  0  0  0  0  0  0
  -24.5321   11.8954   26.6452 N   0  0  0  0  0  0  0  0  0  0  0  0
  -25.0930   11.1995   26.1200 H   0  0  0  0  0  0  0  0  0  0  0  0
  -24.9595   13.1229   27.0068 C   0  0  0  0  0  0  0  0  0  0  0  0
  -25.9297   13.4820   26.7781 H   0  0  0  0  0  0  0  0  0  0  0  0
  -23.9248   13.6865   27.6670 C   0  0  0  0  0  0  0  0  0  0  0  0
  -23.9040   14.6523   28.1051 H   0  0  0  0  0  0  0  0  0  0  0  0
  -19.5197   14.3769   26.5315 C   0  0  0  0  0  0  0  0  0  0  0  0
  -19.7033   14.8665   27.4523 H   0  0  0  0  0  0  0  0  0  0  0  0
  -18.9381   15.0744   25.4726 C   0  0  0  0  0  0  0  0  0  0  0  0
  -18.6764   16.0938   25.5971 H   0  0  0  0  0  0  0  0  0  0  0  0
  -18.6961   14.4431   24.2507 C   0  0  0  0  0  0  0  0  0  0  0  0
  -18.2523   14.9833   23.4539 H   0  0  0  0  0  0  0  0  0  0  0  0
  -19.0436   13.1041   24.0805 C   0  0  0  0  0  0  0  0  0  0  0  0
  -18.8723   12.6158   23.1565 H   0  0  0  0  0  0  0  0  0  0  0  0
  1  2  1  0
  2  3  1  0
  2 23  2  0
  3  4  1  0
  3 17  2  0
  4  5  1  0
  4  6  1  0
  6  7  1  0
  6  8  1  0
  6  9  1  0
  9 10  2  0
  9 15  1  0
 10 11  1  0
 11 12  1  0
 11 13  1  0
 13 14  1  0
 13 15  2  0
 15 16  1  0
 17 18  1  0
 17 19  1  0
 19 20  1  0
 19 21  2  0
 21 22  1  0
 21 23  1  0
 23 24  1  0
M  END
$$$$
