F600_78
     RDKit          3D

 16 16  0  0  0  0  0  0  0  0999 V2000
  -22.6783   14.0940   28.9636 O   0  0  0  0  0  0  0  0  0  0  0  0
  -22.6891   12.6717   28.8408 C   0  0  0  0  0  0  0  0  0  0  0  0
  -22.5716   12.2160   29.8317 H   0  0  0  0  0  0  0  0  0  0  0  0
  -23.6397   12.3383   28.4091 H   0  0  0  0  0  0  0  0  0  0  0  0
  -21.5456   12.2846   27.9662 C   0  0  0  0  0  0  0  0  0  0  0  0
  -20.0994   13.2024   27.9476 S   0  0  0  0  0  0  0  0  0  0  0  0
  -19.5363   12.0990   26.7820 C   0  0  0  0  0  0  0  0  0  0  0  0
  -18.3058   12.2341   26.2594 N   0  0  0  0  0  0  0  0  0  0  0  0
  -17.6798   12.9801   26.5356 H   0  0  0  0  0  0  0  0  0  0  0  0
  -17.9711   11.5771   25.5648 H   0  0  0  0  0  0  0  0  0  0  0  0
  -20.3618   11.1564   26.4499 N   0  0  0  0  0  0  0  0  0  0  0  0
  -21.5436   11.2724   27.1519 N   0  0  0  0  0  0  0  0  0  0  0  0
  -23.7476   14.5570   29.7763 C   0  0  0  0  0  0  0  0  0  0  0  0
  -23.6892   15.6475   29.8339 H   0  0  0  0  0  0  0  0  0  0  0  0
  -23.6646   14.1491   30.7881 H   0  0  0  0  0  0  0  0  0  0  0  0
  -24.7107   14.2818   29.3357 H   0  0  0  0  0  0  0  0  0  0  0  0
  1  2  1  0
  1 13  1  0
  2  3  1  0
  2  4  1  0
  2  5  1  0
  5  6  1  0
  5 12  2  0
  6  7  1  0
  7  8  1  0
  7 11  2  0
  8  9  1  0
  8 10  1  0
 11 12  1  0
 13 14  1  0
 13 15  1  0
 13 16  1  0
M  END
$$$$
