F179_5
     RDKit          3D

 29 30  0  0  0  0  0  0  0  0999 V2000
  -18.8936   12.4469   27.3773 C   0  0  0  0  0  0  0  0  0  0  0  0
  -19.0200   13.4625   27.7654 H   0  0  0  0  0  0  0  0  0  0  0  0
  -18.0052   12.4278   26.7360 H   0  0  0  0  0  0  0  0  0  0  0  0
  -18.6868   11.7791   28.2209 H   0  0  0  0  0  0  0  0  0  0  0  0
  -20.1234   11.9859   26.6016 C   0  0  0  0  0  0  0  0  0  0  0  0
  -19.8814   10.6695   26.1039 O   0  0  0  0  0  0  0  0  0  0  0  0
  -19.0918   10.7151   25.5382 H   0  0  0  0  0  0  0  0  0  0  0  0
  -21.3599   12.0231   27.4410 C   0  0  0  0  0  0  0  0  0  0  0  0
  -22.2844   10.9990   27.6107 C   0  0  0  0  0  0  0  0  0  0  0  0
  -22.2329   10.0445   27.1490 H   0  0  0  0  0  0  0  0  0  0  0  0
  -23.2441   11.3555   28.4211 N   0  0  0  0  0  0  0  0  0  0  0  0
  -22.9446   12.6351   28.7829 N   0  0  0  0  0  0  0  0  0  0  0  0
  -23.7959   13.3735   29.6833 C   0  0  0  0  0  0  0  0  0  0  0  0
  -23.2683   13.4447   30.6452 H   0  0  0  0  0  0  0  0  0  0  0  0
  -24.1516   14.7819   29.2099 C   0  0  0  0  0  0  0  0  0  0  0  0
  -23.3158   15.4808   29.3185 H   0  0  0  0  0  0  0  0  0  0  0  0
  -24.4496   14.7881   28.1547 H   0  0  0  0  0  0  0  0  0  0  0  0
  -25.3434   15.1742   30.0782 C   0  0  0  0  0  0  0  0  0  0  0  0
  -25.0081   15.7482   30.9499 H   0  0  0  0  0  0  0  0  0  0  0  0
  -26.0477   15.8036   29.5241 H   0  0  0  0  0  0  0  0  0  0  0  0
  -25.9889   13.8666   30.5376 C   0  0  0  0  0  0  0  0  0  0  0  0
  -27.0409   13.8046   30.2385 H   0  0  0  0  0  0  0  0  0  0  0  0
  -25.9555   13.8018   31.6320 H   0  0  0  0  0  0  0  0  0  0  0  0
  -25.1671   12.7425   29.9161 C   0  0  0  0  0  0  0  0  0  0  0  0
  -25.6282   12.4270   28.9717 H   0  0  0  0  0  0  0  0  0  0  0  0
  -25.1162   11.8620   30.5656 H   0  0  0  0  0  0  0  0  0  0  0  0
  -21.8009   13.0554   28.1969 C   0  0  0  0  0  0  0  0  0  0  0  0
  -21.4040   14.0228   28.3640 H   0  0  0  0  0  0  0  0  0  0  0  0
  -20.2643   12.6362   25.7289 H   0  0  0  0  0  0  0  0  0  0  0  0
  1  2  1  0
  1  3  1  0
  1  4  1  0
  1  5  1  0
  5  6  1  0
  5  8  1  0
  5 29  1  0
  6  7  1  0
  8  9  1  0
  8 27  2  0
  9 10  1  0
  9 11  2  0
 11 12  1  0
 12 13  1  0
 12 27  1  0
 13 14  1  0
 13 15  1  0
 13 24  1  0
 15 16  1  0
 15 17  1  0
 15 18  1  0
 18 19  1  0
 18 20  1  0
 18 21  1  0
 21 22  1  0
 21 23  1  0
 21 24  1  0
 24 25  1  0
 24 26  1  0
 27 28  1  0
M  END
$$$$
