F367_10
     RDKit          3D

 31 32  0  0  0  0  0  0  0  0999 V2000
  -20.7976   13.7510   28.2668 O   0  0  0  0  0  0  0  0  0  0  0  0
  -20.7295   13.0834   27.2430 C   0  0  0  0  0  0  0  0  0  0  0  0
  -21.5285   11.9814   27.1737 N   0  0  0  0  0  0  0  0  0  0  0  0
  -21.5866   11.4369   26.3050 H   0  0  0  0  0  0  0  0  0  0  0  0
  -22.3484   11.5534   28.2891 C   0  0  0  0  0  0  0  0  0  0  0  0
  -21.7621   11.6526   29.2099 H   0  0  0  0  0  0  0  0  0  0  0  0
  -22.5940   10.4935   28.1581 H   0  0  0  0  0  0  0  0  0  0  0  0
  -23.5747   12.3928   28.3437 C   0  0  0  0  0  0  0  0  0  0  0  0
  -23.7731   13.5024   29.0937 C   0  0  0  0  0  0  0  0  0  0  0  0
  -23.1449   14.0148   29.7733 H   0  0  0  0  0  0  0  0  0  0  0  0
  -25.0318   13.9133   28.8216 N   0  0  0  0  0  0  0  0  0  0  0  0
  -25.7352   15.0561   29.3647 C   0  0  0  0  0  0  0  0  0  0  0  0
  -26.5661   14.6794   29.9715 H   0  0  0  0  0  0  0  0  0  0  0  0
  -25.0449   15.5831   30.0317 H   0  0  0  0  0  0  0  0  0  0  0  0
  -26.2516   15.9828   28.2790 C   0  0  0  0  0  0  0  0  0  0  0  0
  -26.9388   15.4572   27.6071 H   0  0  0  0  0  0  0  0  0  0  0  0
  -25.4301   16.3779   27.6723 H   0  0  0  0  0  0  0  0  0  0  0  0
  -26.7857   16.8283   28.7230 H   0  0  0  0  0  0  0  0  0  0  0  0
  -25.6397   13.1013   27.9203 N   0  0  0  0  0  0  0  0  0  0  0  0
  -24.7543   12.1849   27.6396 C   0  0  0  0  0  0  0  0  0  0  0  0
  -24.9346   11.3963   26.9534 H   0  0  0  0  0  0  0  0  0  0  0  0
  -19.8713   13.4510   26.1004 C   0  0  0  0  0  0  0  0  0  0  0  0
  -19.2643   14.7132   26.1114 C   0  0  0  0  0  0  0  0  0  0  0  0
  -19.4344   15.3710   26.9277 H   0  0  0  0  0  0  0  0  0  0  0  0
  -18.4721   15.1351   25.1238 N   0  0  0  0  0  0  0  0  0  0  0  0
  -18.2327   14.3392   24.0836 C   0  0  0  0  0  0  0  0  0  0  0  0
  -17.5987   14.7029   23.3143 H   0  0  0  0  0  0  0  0  0  0  0  0
  -18.7885   13.0656   23.9965 C   0  0  0  0  0  0  0  0  0  0  0  0
  -18.5754   12.4532   23.1597 H   0  0  0  0  0  0  0  0  0  0  0  0
  -19.6173   12.6066   25.0122 C   0  0  0  0  0  0  0  0  0  0  0  0
  -20.0352   11.6353   24.9581 H   0  0  0  0  0  0  0  0  0  0  0  0
  1  2  2  0
  2  3  1  0
  2 22  1  0
  3  4  1  0
  3  5  1  0
  5  6  1  0
  5  7  1  0
  5  8  1  0
  8  9  2  0
  8 20  1  0
  9 10  1  0
  9 11  1  0
 11 12  1  0
 11 19  1  0
 12 13  1  0
 12 14  1  0
 12 15  1  0
 15 16  1  0
 15 17  1  0
 15 18  1  0
 19 20  2  0
 20 21  1  0
 22 23  1  0
 22 30  2  0
 23 24  1  0
 23 25  2  0
 25 26  1  0
 26 27  1  0
 26 28  2  0
 28 29  1  0
 28 30  1  0
 30 31  1  0
M  END
$$$$
