F760_58
     RDKit          3D

 17 18  0  0  0  0  0  0  0  0999 V2000
  -27.5857   14.4870   29.4970 Br  0  0  0  0  0  0  0  0  0  0  0  0
  -25.7784   13.9812   29.2660 C   0  0  0  0  0  0  0  0  0  0  0  0
  -25.2876   13.7212   27.9886 C   0  0  0  0  0  0  0  0  0  0  0  0
  -25.9085   13.7992   27.1352 H   0  0  0  0  0  0  0  0  0  0  0  0
  -23.9543   13.3519   27.8710 C   0  0  0  0  0  0  0  0  0  0  0  0
  -23.2569   13.0475   26.7113 N   0  0  0  0  0  0  0  0  0  0  0  0
  -23.6169   13.0456   25.7493 H   0  0  0  0  0  0  0  0  0  0  0  0
  -21.9695   12.7306   26.9858 C   0  0  0  0  0  0  0  0  0  0  0  0
  -21.2018   12.4344   26.1004 O   0  0  0  0  0  0  0  0  0  0  0  0
  -21.7447   12.8245   28.4931 C   0  0  0  0  0  0  0  0  0  0  0  0
  -21.4612   11.8464   28.8884 H   0  0  0  0  0  0  0  0  0  0  0  0
  -20.9966   13.5907   28.7094 H   0  0  0  0  0  0  0  0  0  0  0  0
  -23.1082   13.2360   28.9553 C   0  0  0  0  0  0  0  0  0  0  0  0
  -23.5973   13.4975   30.2306 C   0  0  0  0  0  0  0  0  0  0  0  0
  -22.9643   13.4155   31.0780 H   0  0  0  0  0  0  0  0  0  0  0  0
  -24.9355   13.8705   30.3825 C   0  0  0  0  0  0  0  0  0  0  0  0
  -25.3197   14.0723   31.3490 H   0  0  0  0  0  0  0  0  0  0  0  0
  1  2  1  0
  2  3  1  0
  2 16  2  0
  3  4  1  0
  3  5  2  0
  5  6  1  0
  5 13  1  0
  6  7  1  0
  6  8  1  0
  8  9  2  0
  8 10  1  0
 10 11  1  0
 10 12  1  0
 10 13  1  0
 13 14  2  0
 14 15  1  0
 14 16  1  0
 16 17  1  0
M  END
$$$$
