F616_17
     RDKit          3D

 26 26  0  0  0  0  0  0  0  0999 V2000
  -18.8516   12.5563   26.1728 S   0  0  0  0  0  0  0  0  0  0  0  0
  -18.4837   11.1643   26.3128 O   0  0  0  0  0  0  0  0  0  0  0  0
  -18.2208   13.5923   26.9629 O   0  0  0  0  0  0  0  0  0  0  0  0
  -20.5126   12.7123   26.4062 N   0  0  0  0  0  0  0  0  0  0  0  0
  -21.0902   12.2330   25.7110 H   0  0  0  0  0  0  0  0  0  0  0  0
  -21.0530   12.7910   27.7768 C   0  0  0  0  0  0  0  0  0  0  0  0
  -20.4115   12.1854   28.4265 H   0  0  0  0  0  0  0  0  0  0  0  0
  -21.0395   13.8225   28.1454 H   0  0  0  0  0  0  0  0  0  0  0  0
  -22.4764   12.2302   27.8196 C   0  0  0  0  0  0  0  0  0  0  0  0
  -23.1516   12.8468   27.2121 H   0  0  0  0  0  0  0  0  0  0  0  0
  -22.4830   11.2350   27.3570 H   0  0  0  0  0  0  0  0  0  0  0  0
  -23.0246   12.1126   29.2250 C   0  0  0  0  0  0  0  0  0  0  0  0
  -23.0317   10.8720   29.8734 C   0  0  0  0  0  0  0  0  0  0  0  0
  -22.6666   10.0098   29.3786 H   0  0  0  0  0  0  0  0  0  0  0  0
  -23.5198   10.7628   31.1733 C   0  0  0  0  0  0  0  0  0  0  0  0
  -23.5306    9.8295   31.6741 H   0  0  0  0  0  0  0  0  0  0  0  0
  -23.9930   11.9022   31.8081 C   0  0  0  0  0  0  0  0  0  0  0  0
  -24.4631   11.7988   33.0595 F   0  0  0  0  0  0  0  0  0  0  0  0
  -23.9926   13.1446   31.1908 C   0  0  0  0  0  0  0  0  0  0  0  0
  -24.3542   13.9964   31.7044 H   0  0  0  0  0  0  0  0  0  0  0  0
  -23.5047   13.2454   29.8901 C   0  0  0  0  0  0  0  0  0  0  0  0
  -23.4908   14.1906   29.4089 H   0  0  0  0  0  0  0  0  0  0  0  0
  -18.6863   13.0081   24.4593 C   0  0  0  0  0  0  0  0  0  0  0  0
  -19.2114   12.2778   23.8412 H   0  0  0  0  0  0  0  0  0  0  0  0
  -17.6225   13.0009   24.2115 H   0  0  0  0  0  0  0  0  0  0  0  0
  -19.0924   14.0108   24.3161 H   0  0  0  0  0  0  0  0  0  0  0  0
  1  2  2  0
  1  3  2  0
  1  4  1  0
  1 23  1  0
  4  5  1  0
  4  6  1  0
  6  7  1  0
  6  8  1  0
  6  9  1  0
  9 10  1  0
  9 11  1  0
  9 12  1  0
 12 13  1  0
 12 21  2  0
 13 14  1  0
 13 15  2  0
 15 16  1  0
 15 17  1  0
 17 18  1  0
 17 19  2  0
 19 20  1  0
 19 21  1  0
 21 22  1  0
 23 24  1  0
 23 25  1  0
 23 26  1  0
M  END
$$$$
