F368_29
     RDKit          3D

 29 30  0  0  0  0  0  0  0  0999 V2000
  -20.9898   12.2709   28.9995 O   0  0  0  0  0  0  0  0  0  0  0  0
  -21.0788   12.2783   27.7861 C   0  0  0  0  0  0  0  0  0  0  0  0
  -22.2857   12.4654   27.1692 N   0  0  0  0  0  0  0  0  0  0  0  0
  -22.2609   12.4434   26.1431 H   0  0  0  0  0  0  0  0  0  0  0  0
  -23.5234   12.6741   27.7637 C   0  0  0  0  0  0  0  0  0  0  0  0
  -23.8088   12.7083   29.0818 C   0  0  0  0  0  0  0  0  0  0  0  0
  -23.2019   12.5944   29.9396 H   0  0  0  0  0  0  0  0  0  0  0  0
  -25.1440   12.9389   29.1425 N   0  0  0  0  0  0  0  0  0  0  0  0
  -25.9665   13.0621   30.3263 C   0  0  0  0  0  0  0  0  0  0  0  0
  -26.9929   12.7990   30.0459 H   0  0  0  0  0  0  0  0  0  0  0  0
  -25.6178   12.3216   31.0542 H   0  0  0  0  0  0  0  0  0  0  0  0
  -25.9101   14.4573   30.9218 C   0  0  0  0  0  0  0  0  0  0  0  0
  -26.5359   14.5139   31.8177 H   0  0  0  0  0  0  0  0  0  0  0  0
  -24.8860   14.7242   31.2017 H   0  0  0  0  0  0  0  0  0  0  0  0
  -26.2674   15.2065   30.2076 H   0  0  0  0  0  0  0  0  0  0  0  0
  -25.7042   13.0551   27.9020 N   0  0  0  0  0  0  0  0  0  0  0  0
  -24.7091   12.8909   27.0694 C   0  0  0  0  0  0  0  0  0  0  0  0
  -24.8173   12.9228   26.0163 H   0  0  0  0  0  0  0  0  0  0  0  0
  -19.8856   12.0779   26.8049 C   0  0  0  0  0  0  0  0  0  0  0  0
  -19.8567   11.0612   26.3840 H   0  0  0  0  0  0  0  0  0  0  0  0
  -19.7035   13.1393   25.6850 C   0  0  0  0  0  0  0  0  0  0  0  0
  -20.0823   14.1356   25.9379 H   0  0  0  0  0  0  0  0  0  0  0  0
  -20.0834   12.8557   24.6993 H   0  0  0  0  0  0  0  0  0  0  0  0
  -18.1827   12.9877   25.8751 C   0  0  0  0  0  0  0  0  0  0  0  0
  -17.5988   13.9076   25.7942 H   0  0  0  0  0  0  0  0  0  0  0  0
  -17.7335   12.2199   25.2349 H   0  0  0  0  0  0  0  0  0  0  0  0
  -18.4779   12.5033   27.3073 C   0  0  0  0  0  0  0  0  0  0  0  0
  -18.4865   13.3085   28.0516 H   0  0  0  0  0  0  0  0  0  0  0  0
  -17.8401   11.6931   27.6695 H   0  0  0  0  0  0  0  0  0  0  0  0
  1  2  2  0
  2  3  1  0
  2 19  1  0
  3  4  1  0
  3  5  1  0
  5  6  2  0
  5 17  1  0
  6  7  1  0
  6  8  1  0
  8  9  1  0
  8 16  1  0
  9 10  1  0
  9 11  1  0
  9 12  1  0
 12 13  1  0
 12 14  1  0
 12 15  1  0
 16 17  2  0
 17 18  1  0
 19 20  1  0
 19 21  1  0
 19 27  1  0
 21 22  1  0
 21 23  1  0
 21 24  1  0
 24 25  1  0
 24 26  1  0
 24 27  1  0
 27 28  1  0
 27 29  1  0
M  END
$$$$
