F687_27
     RDKit          3D

 24 25  0  0  0  0  0  0  0  0999 V2000
  -21.4123   12.0064   29.7824 F   0  0  0  0  0  0  0  0  0  0  0  0
  -22.5732   12.2993   29.1764 C   0  0  0  0  0  0  0  0  0  0  0  0
  -22.6186   12.5482   27.7899 C   0  0  0  0  0  0  0  0  0  0  0  0
  -21.5074   12.5106   26.9669 N   0  0  0  0  0  0  0  0  0  0  0  0
  -21.5823   12.1869   26.0072 H   0  0  0  0  0  0  0  0  0  0  0  0
  -20.1586   12.9047   27.3475 C   0  0  0  0  0  0  0  0  0  0  0  0
  -20.2133   13.6675   28.1346 H   0  0  0  0  0  0  0  0  0  0  0  0
  -19.6290   12.0348   27.7538 H   0  0  0  0  0  0  0  0  0  0  0  0
  -19.3200   13.4654   26.2317 C   0  0  0  0  0  0  0  0  0  0  0  0
  -18.7092   14.6197   26.3491 N   0  0  0  0  0  0  0  0  0  0  0  0
  -18.0619   14.7971   25.1667 N   0  0  0  0  0  0  0  0  0  0  0  0
  -17.4858   15.6339   24.9604 H   0  0  0  0  0  0  0  0  0  0  0  0
  -18.2622   13.7651   24.3212 C   0  0  0  0  0  0  0  0  0  0  0  0
  -17.8331   13.7262   23.3532 H   0  0  0  0  0  0  0  0  0  0  0  0
  -19.0615   12.9027   24.9855 C   0  0  0  0  0  0  0  0  0  0  0  0
  -19.4201   11.9698   24.6300 H   0  0  0  0  0  0  0  0  0  0  0  0
  -23.8507   12.8591   27.2097 C   0  0  0  0  0  0  0  0  0  0  0  0
  -23.9079   13.0645   26.1725 H   0  0  0  0  0  0  0  0  0  0  0  0
  -25.0027   12.9017   27.9953 C   0  0  0  0  0  0  0  0  0  0  0  0
  -25.9345   13.1348   27.5475 H   0  0  0  0  0  0  0  0  0  0  0  0
  -24.9411   12.6392   29.3655 C   0  0  0  0  0  0  0  0  0  0  0  0
  -25.8236   12.6732   29.9518 H   0  0  0  0  0  0  0  0  0  0  0  0
  -23.7171   12.3375   29.9600 C   0  0  0  0  0  0  0  0  0  0  0  0
  -23.6555   12.1439   30.9994 H   0  0  0  0  0  0  0  0  0  0  0  0
  1  2  1  0
  2  3  1  0
  2 23  2  0
  3  4  1  0
  3 17  2  0
  4  5  1  0
  4  6  1  0
  6  7  1  0
  6  8  1  0
  6  9  1  0
  9 10  2  0
  9 15  1  0
 10 11  1  0
 11 12  1  0
 11 13  1  0
 13 14  1  0
 13 15  2  0
 15 16  1  0
 17 18  1  0
 17 19  1  0
 19 20  1  0
 19 21  2  0
 21 22  1  0
 21 23  1  0
 23 24  1  0
M  END
$$$$
