F179_7
     RDKit          3D

 29 30  0  0  0  0  0  0  0  0999 V2000
  -18.8984   12.4538   27.3822 C   0  0  0  0  0  0  0  0  0  0  0  0
  -19.0256   13.4679   27.7737 H   0  0  0  0  0  0  0  0  0  0  0  0
  -18.0052   12.4355   26.7476 H   0  0  0  0  0  0  0  0  0  0  0  0
  -18.6995   11.7819   28.2244 H   0  0  0  0  0  0  0  0  0  0  0  0
  -20.1232   11.9989   26.5951 C   0  0  0  0  0  0  0  0  0  0  0  0
  -19.8803   10.6842   26.0935 O   0  0  0  0  0  0  0  0  0  0  0  0
  -20.6377   10.4444   25.5327 H   0  0  0  0  0  0  0  0  0  0  0  0
  -21.3660   12.0352   27.4251 C   0  0  0  0  0  0  0  0  0  0  0  0
  -22.2808   11.0039   27.6034 C   0  0  0  0  0  0  0  0  0  0  0  0
  -22.2158   10.0433   27.1563 H   0  0  0  0  0  0  0  0  0  0  0  0
  -23.2501   11.3619   28.4017 N   0  0  0  0  0  0  0  0  0  0  0  0
  -22.9668   12.6498   28.7466 N   0  0  0  0  0  0  0  0  0  0  0  0
  -23.8323   13.3922   29.6300 C   0  0  0  0  0  0  0  0  0  0  0  0
  -23.3060   13.4963   30.5896 H   0  0  0  0  0  0  0  0  0  0  0  0
  -24.2157   14.7819   29.1240 C   0  0  0  0  0  0  0  0  0  0  0  0
  -23.3938   15.4994   29.2156 H   0  0  0  0  0  0  0  0  0  0  0  0
  -24.5139   14.7575   28.0691 H   0  0  0  0  0  0  0  0  0  0  0  0
  -25.4149   15.1710   29.9835 C   0  0  0  0  0  0  0  0  0  0  0  0
  -25.0908   15.7717   30.8414 H   0  0  0  0  0  0  0  0  0  0  0  0
  -26.1315   15.7731   29.4153 H   0  0  0  0  0  0  0  0  0  0  0  0
  -26.0345   13.8620   30.4739 C   0  0  0  0  0  0  0  0  0  0  0  0
  -27.0851   13.7723   30.1769 H   0  0  0  0  0  0  0  0  0  0  0  0
  -25.9996   13.8235   31.5695 H   0  0  0  0  0  0  0  0  0  0  0  0
  -25.1907   12.7400   29.8784 C   0  0  0  0  0  0  0  0  0  0  0  0
  -25.6458   12.3934   28.9419 H   0  0  0  0  0  0  0  0  0  0  0  0
  -25.1224   11.8761   30.5483 H   0  0  0  0  0  0  0  0  0  0  0  0
  -21.8234   13.0738   28.1626 C   0  0  0  0  0  0  0  0  0  0  0  0
  -21.4381   14.0477   28.3180 H   0  0  0  0  0  0  0  0  0  0  0  0
  -20.2560   12.6533   25.7241 H   0  0  0  0  0  0  0  0  0  0  0  0
  1  2  1  0
  1  3  1  0
  1  4  1  0
  1  5  1  0
  5  6  1  0
  5  8  1  0
  5 29  1  0
  6  7  1  0
  8  9  1  0
  8 27  2  0
  9 10  1  0
  9 11  2  0
 11 12  1  0
 12 13  1  0
 12 27  1  0
 13 14  1  0
 13 15  1  0
 13 24  1  0
 15 16  1  0
 15 17  1  0
 15 18  1  0
 18 19  1  0
 18 20  1  0
 18 21  1  0
 21 22  1  0
 21 23  1  0
 21 24  1  0
 24 25  1  0
 24 26  1  0
 27 28  1  0
M  END
$$$$
