F96_14
     RDKit          3D

 19 19  0  0  0  0  0  0  0  0999 V2000
  -19.1269   12.6917   28.3837 O   0  0  0  0  0  0  0  0  0  0  0  0
  -19.6427   12.2979   27.3474 C   0  0  0  0  0  0  0  0  0  0  0  0
  -20.9540   12.3254   27.1562 N   0  0  0  0  0  0  0  0  0  0  0  0
  -21.3470   11.9833   26.2962 H   0  0  0  0  0  0  0  0  0  0  0  0
  -21.8668   12.8324   28.1589 C   0  0  0  0  0  0  0  0  0  0  0  0
  -21.6517   12.3321   29.1094 H   0  0  0  0  0  0  0  0  0  0  0  0
  -21.6839   13.9040   28.2930 H   0  0  0  0  0  0  0  0  0  0  0  0
  -23.2620   12.5724   27.7170 C   0  0  0  0  0  0  0  0  0  0  0  0
  -23.7951   11.3843   27.3462 C   0  0  0  0  0  0  0  0  0  0  0  0
  -23.3768   10.4127   27.2826 H   0  0  0  0  0  0  0  0  0  0  0  0
  -25.0832   11.6419   27.0340 N   0  0  0  0  0  0  0  0  0  0  0  0
  -25.7740   10.9381   26.7129 H   0  0  0  0  0  0  0  0  0  0  0  0
  -25.3887   12.9569   27.1855 N   0  0  0  0  0  0  0  0  0  0  0  0
  -24.2827   13.5107   27.6003 C   0  0  0  0  0  0  0  0  0  0  0  0
  -24.1959   14.5473   27.8110 H   0  0  0  0  0  0  0  0  0  0  0  0
  -18.8330   11.7223   26.2190 C   0  0  0  0  0  0  0  0  0  0  0  0
  -19.3490   11.8395   25.2619 H   0  0  0  0  0  0  0  0  0  0  0  0
  -18.6625   10.6596   26.4068 H   0  0  0  0  0  0  0  0  0  0  0  0
  -17.8725   12.2418   26.1601 H   0  0  0  0  0  0  0  0  0  0  0  0
  1  2  2  0
  2  3  1  0
  2 16  1  0
  3  4  1  0
  3  5  1  0
  5  6  1  0
  5  7  1  0
  5  8  1  0
  8  9  2  0
  8 14  1  0
  9 10  1  0
  9 11  1  0
 11 12  1  0
 11 13  1  0
 13 14  2  0
 14 15  1  0
 16 17  1  0
 16 18  1  0
 16 19  1  0
M  END
$$$$
