F687_29
     RDKit          3D

 24 25  0  0  0  0  0  0  0  0999 V2000
  -21.4188   11.9710   29.8306 F   0  0  0  0  0  0  0  0  0  0  0  0
  -22.5917   12.2913   29.2627 C   0  0  0  0  0  0  0  0  0  0  0  0
  -22.6696   12.5793   27.8853 C   0  0  0  0  0  0  0  0  0  0  0  0
  -21.5800   12.5545   27.0334 N   0  0  0  0  0  0  0  0  0  0  0  0
  -21.6813   12.2536   26.0688 H   0  0  0  0  0  0  0  0  0  0  0  0
  -20.2195   12.9321   27.3884 C   0  0  0  0  0  0  0  0  0  0  0  0
  -20.2502   13.6999   28.1719 H   0  0  0  0  0  0  0  0  0  0  0  0
  -19.6949   12.0572   27.7905 H   0  0  0  0  0  0  0  0  0  0  0  0
  -19.3929   13.4751   26.2551 C   0  0  0  0  0  0  0  0  0  0  0  0
  -18.7876   14.6348   26.3448 N   0  0  0  0  0  0  0  0  0  0  0  0
  -18.1506   14.7923   25.1540 N   0  0  0  0  0  0  0  0  0  0  0  0
  -17.5809   15.6279   24.9265 H   0  0  0  0  0  0  0  0  0  0  0  0
  -18.3517   13.7426   24.3306 C   0  0  0  0  0  0  0  0  0  0  0  0
  -17.9300   13.6867   23.3603 H   0  0  0  0  0  0  0  0  0  0  0  0
  -19.1410   12.8892   25.0182 C   0  0  0  0  0  0  0  0  0  0  0  0
  -19.4971   11.9475   24.6842 H   0  0  0  0  0  0  0  0  0  0  0  0
  -23.9129   12.9175   27.3455 C   0  0  0  0  0  0  0  0  0  0  0  0
  -23.9942   13.1523   26.3162 H   0  0  0  0  0  0  0  0  0  0  0  0
  -25.0442   12.9486   28.1611 C   0  0  0  0  0  0  0  0  0  0  0  0
  -25.9847   13.2026   27.7438 H   0  0  0  0  0  0  0  0  0  0  0  0
  -24.9507   12.6474   29.5214 C   0  0  0  0  0  0  0  0  0  0  0  0
  -25.8177   12.6731   30.1308 H   0  0  0  0  0  0  0  0  0  0  0  0
  -23.7150   12.3181   30.0760 C   0  0  0  0  0  0  0  0  0  0  0  0
  -23.6292   12.0950   31.1077 H   0  0  0  0  0  0  0  0  0  0  0  0
  1  2  1  0
  2  3  1  0
  2 23  2  0
  3  4  1  0
  3 17  2  0
  4  5  1  0
  4  6  1  0
  6  7  1  0
  6  8  1  0
  6  9  1  0
  9 10  2  0
  9 15  1  0
 10 11  1  0
 11 12  1  0
 11 13  1  0
 13 14  1  0
 13 15  2  0
 15 16  1  0
 17 18  1  0
 17 19  1  0
 19 20  1  0
 19 21  2  0
 21 22  1  0
 21 23  1  0
 23 24  1  0
M  END
$$$$
