F95_44
     RDKit          3D

 27 27  0  0  0  0  0  0  0  0999 V2000
  -19.0015   11.5573   26.7997 S   0  0  0  0  0  0  0  0  0  0  0  0
  -18.0283   12.0143   27.7675 O   0  0  0  0  0  0  0  0  0  0  0  0
  -19.0423   10.1849   26.3446 O   0  0  0  0  0  0  0  0  0  0  0  0
  -18.8296   12.5268   25.4308 N   0  0  0  0  0  0  0  0  0  0  0  0
  -19.7205   12.9238   25.1231 H   0  0  0  0  0  0  0  0  0  0  0  0
  -18.3089   12.0561   24.6866 H   0  0  0  0  0  0  0  0  0  0  0  0
  -20.6051   12.0129   27.3549 C   0  0  0  0  0  0  0  0  0  0  0  0
  -21.6847   11.1366   27.2103 C   0  0  0  0  0  0  0  0  0  0  0  0
  -21.5250   10.1741   26.7890 H   0  0  0  0  0  0  0  0  0  0  0  0
  -22.9633   11.5158   27.6024 C   0  0  0  0  0  0  0  0  0  0  0  0
  -23.7722   10.8398   27.4814 H   0  0  0  0  0  0  0  0  0  0  0  0
  -23.1863   12.7809   28.1425 C   0  0  0  0  0  0  0  0  0  0  0  0
  -24.5802   13.2171   28.5006 C   0  0  0  0  0  0  0  0  0  0  0  0
  -25.3155   12.7752   27.8168 H   0  0  0  0  0  0  0  0  0  0  0  0
  -24.6827   14.3062   28.4190 H   0  0  0  0  0  0  0  0  0  0  0  0
  -24.9035   12.8214   29.8544 N   0  0  0  0  0  0  0  0  0  0  0  0
  -24.1427   12.7224   30.5043 H   0  0  0  0  0  0  0  0  0  0  0  0
  -26.1481   12.5916   30.2495 C   0  0  0  0  0  0  0  0  0  0  0  0
  -27.1007   12.7018   29.4920 O   0  0  0  0  0  0  0  0  0  0  0  0
  -26.2993   12.2013   31.6920 C   0  0  0  0  0  0  0  0  0  0  0  0
  -25.6365   11.3631   31.9254 H   0  0  0  0  0  0  0  0  0  0  0  0
  -26.0468   13.0526   32.3307 H   0  0  0  0  0  0  0  0  0  0  0  0
  -27.3321   11.8994   31.8862 H   0  0  0  0  0  0  0  0  0  0  0  0
  -22.1178   13.6635   28.2800 C   0  0  0  0  0  0  0  0  0  0  0  0
  -22.2796   14.6342   28.6772 H   0  0  0  0  0  0  0  0  0  0  0  0
  -20.8386   13.2835   27.8865 C   0  0  0  0  0  0  0  0  0  0  0  0
  -20.0318   13.9678   27.9833 H   0  0  0  0  0  0  0  0  0  0  0  0
  1  2  2  0
  1  3  2  0
  1  4  1  0
  1  7  1  0
  4  5  1  0
  4  6  1  0
  7  8  1  0
  7 26  2  0
  8  9  1  0
  8 10  2  0
 10 11  1  0
 10 12  1  0
 12 13  1  0
 12 24  2  0
 13 14  1  0
 13 15  1  0
 13 16  1  0
 16 17  1  0
 16 18  1  0
 18 19  2  0
 18 20  1  0
 20 21  1  0
 20 22  1  0
 20 23  1  0
 24 25  1  0
 24 26  1  0
 26 27  1  0
M  END
$$$$
