F367_36
     RDKit          3D

 31 32  0  0  0  0  0  0  0  0999 V2000
  -20.8001   14.2085   28.1550 O   0  0  0  0  0  0  0  0  0  0  0  0
  -20.7415   13.3648   27.2699 C   0  0  0  0  0  0  0  0  0  0  0  0
  -21.7099   12.4059   27.2699 N   0  0  0  0  0  0  0  0  0  0  0  0
  -21.7698   11.7293   26.4998 H   0  0  0  0  0  0  0  0  0  0  0  0
  -22.7070   12.3184   28.3178 C   0  0  0  0  0  0  0  0  0  0  0  0
  -22.2290   12.5617   29.2738 H   0  0  0  0  0  0  0  0  0  0  0  0
  -23.0675   11.2851   28.3742 H   0  0  0  0  0  0  0  0  0  0  0  0
  -23.8141   13.2648   28.0181 C   0  0  0  0  0  0  0  0  0  0  0  0
  -24.2602   14.2753   28.8011 C   0  0  0  0  0  0  0  0  0  0  0  0
  -23.9474   14.6215   29.7504 H   0  0  0  0  0  0  0  0  0  0  0  0
  -25.2793   14.8478   28.1221 N   0  0  0  0  0  0  0  0  0  0  0  0
  -26.0992   15.9719   28.5225 C   0  0  0  0  0  0  0  0  0  0  0  0
  -27.1049   15.8122   28.1185 H   0  0  0  0  0  0  0  0  0  0  0  0
  -26.1703   15.9568   29.6151 H   0  0  0  0  0  0  0  0  0  0  0  0
  -25.5380   17.2955   28.0352 C   0  0  0  0  0  0  0  0  0  0  0  0
  -25.4610   17.3118   26.9426 H   0  0  0  0  0  0  0  0  0  0  0  0
  -24.5374   17.4748   28.4421 H   0  0  0  0  0  0  0  0  0  0  0  0
  -26.1861   18.1206   28.3457 H   0  0  0  0  0  0  0  0  0  0  0  0
  -25.4941   14.2348   26.9307 N   0  0  0  0  0  0  0  0  0  0  0  0
  -24.6075   13.2790   26.8775 C   0  0  0  0  0  0  0  0  0  0  0  0
  -24.5202   12.6151   26.0548 H   0  0  0  0  0  0  0  0  0  0  0  0
  -19.7148   13.3828   26.2103 C   0  0  0  0  0  0  0  0  0  0  0  0
  -19.0005   12.2033   25.9648 C   0  0  0  0  0  0  0  0  0  0  0  0
  -19.2068   11.3346   26.5399 H   0  0  0  0  0  0  0  0  0  0  0  0
  -18.0535   12.1220   25.0280 N   0  0  0  0  0  0  0  0  0  0  0  0
  -17.7665   13.1887   24.2847 C   0  0  0  0  0  0  0  0  0  0  0  0
  -17.0087   13.0927   23.5481 H   0  0  0  0  0  0  0  0  0  0  0  0
  -18.4341   14.3984   24.4565 C   0  0  0  0  0  0  0  0  0  0  0  0
  -18.1880   15.2278   23.8465 H   0  0  0  0  0  0  0  0  0  0  0  0
  -19.4223   14.5062   25.4266 C   0  0  0  0  0  0  0  0  0  0  0  0
  -19.9416   15.4198   25.5561 H   0  0  0  0  0  0  0  0  0  0  0  0
  1  2  2  0
  2  3  1  0
  2 22  1  0
  3  4  1  0
  3  5  1  0
  5  6  1  0
  5  7  1  0
  5  8  1  0
  8  9  2  0
  8 20  1  0
  9 10  1  0
  9 11  1  0
 11 12  1  0
 11 19  1  0
 12 13  1  0
 12 14  1  0
 12 15  1  0
 15 16  1  0
 15 17  1  0
 15 18  1  0
 19 20  2  0
 20 21  1  0
 22 23  1  0
 22 30  2  0
 23 24  1  0
 23 25  2  0
 25 26  1  0
 26 27  1  0
 26 28  2  0
 28 29  1  0
 28 30  1  0
 30 31  1  0
M  END
$$$$
