F96_15
     RDKit          3D

 19 19  0  0  0  0  0  0  0  0999 V2000
  -19.0990   12.7910   28.3366 O   0  0  0  0  0  0  0  0  0  0  0  0
  -19.6201   12.3630   27.3167 C   0  0  0  0  0  0  0  0  0  0  0  0
  -20.9353   12.3327   27.1546 N   0  0  0  0  0  0  0  0  0  0  0  0
  -21.3321   11.9637   26.3075 H   0  0  0  0  0  0  0  0  0  0  0  0
  -21.8466   12.8129   28.1716 C   0  0  0  0  0  0  0  0  0  0  0  0
  -21.6258   12.2925   29.1099 H   0  0  0  0  0  0  0  0  0  0  0  0
  -21.6681   13.8820   28.3291 H   0  0  0  0  0  0  0  0  0  0  0  0
  -23.2423   12.5566   27.7291 C   0  0  0  0  0  0  0  0  0  0  0  0
  -23.7767   11.3709   27.3524 C   0  0  0  0  0  0  0  0  0  0  0  0
  -23.3594   10.3992   27.2838 H   0  0  0  0  0  0  0  0  0  0  0  0
  -25.0647   11.6313   27.0421 N   0  0  0  0  0  0  0  0  0  0  0  0
  -25.7564   10.9298   26.7178 H   0  0  0  0  0  0  0  0  0  0  0  0
  -25.3689   12.9459   27.2004 N   0  0  0  0  0  0  0  0  0  0  0  0
  -24.2621   13.4964   27.6176 C   0  0  0  0  0  0  0  0  0  0  0  0
  -24.1742   14.5318   27.8334 H   0  0  0  0  0  0  0  0  0  0  0  0
  -18.8116   11.8084   26.1770 C   0  0  0  0  0  0  0  0  0  0  0  0
  -19.3530   11.8918   25.2304 H   0  0  0  0  0  0  0  0  0  0  0  0
  -18.5920   10.7562   26.3730 H   0  0  0  0  0  0  0  0  0  0  0  0
  -17.8756   12.3672   26.0907 H   0  0  0  0  0  0  0  0  0  0  0  0
  1  2  2  0
  2  3  1  0
  2 16  1  0
  3  4  1  0
  3  5  1  0
  5  6  1  0
  5  7  1  0
  5  8  1  0
  8  9  2  0
  8 14  1  0
  9 10  1  0
  9 11  1  0
 11 12  1  0
 11 13  1  0
 13 14  2  0
 14 15  1  0
 16 17  1  0
 16 18  1  0
 16 19  1  0
M  END
$$$$
