F741_59
     RDKit          3D

 25 27  0  0  0  0  0  0  0  0999 V2000
  -22.5972   13.1665   26.6784 O   0  0  0  0  0  0  0  0  0  0  0  0
  -22.2766   12.8477   27.8218 C   0  0  0  0  0  0  0  0  0  0  0  0
  -20.9515   12.7373   28.1202 N   0  0  0  0  0  0  0  0  0  0  0  0
  -20.7373   12.4808   29.0979 H   0  0  0  0  0  0  0  0  0  0  0  0
  -19.8892   12.9559   27.1963 C   0  0  0  0  0  0  0  0  0  0  0  0
  -19.8840   13.9635   26.7870 H   0  0  0  0  0  0  0  0  0  0  0  0
  -19.4365   11.8571   26.2732 C   0  0  0  0  0  0  0  0  0  0  0  0
  -19.9033   10.8829   26.3528 H   0  0  0  0  0  0  0  0  0  0  0  0
  -19.1491   12.1325   25.2654 H   0  0  0  0  0  0  0  0  0  0  0  0
  -18.5511   12.3012   27.4001 C   0  0  0  0  0  0  0  0  0  0  0  0
  -17.6674   12.8798   27.1602 H   0  0  0  0  0  0  0  0  0  0  0  0
  -18.4305   11.6335   28.2455 H   0  0  0  0  0  0  0  0  0  0  0  0
  -23.2143   12.5857   28.8888 C   0  0  0  0  0  0  0  0  0  0  0  0
  -24.5078   13.0387   28.9598 C   0  0  0  0  0  0  0  0  0  0  0  0
  -24.9849   12.5307   30.1450 N   0  0  0  0  0  0  0  0  0  0  0  0
  -24.0639   11.7858   30.8121 N   0  0  0  0  0  0  0  0  0  0  0  0
  -23.0039   11.8302   30.0415 C   0  0  0  0  0  0  0  0  0  0  0  0
  -22.0928   11.3399   30.2804 H   0  0  0  0  0  0  0  0  0  0  0  0
  -26.2944   12.7836   30.5723 C   0  0  0  0  0  0  0  0  0  0  0  0
  -26.5705   12.3506   31.4984 H   0  0  0  0  0  0  0  0  0  0  0  0
  -27.0600   13.5598   29.7452 C   0  0  0  0  0  0  0  0  0  0  0  0
  -28.0600   13.7971   29.9990 H   0  0  0  0  0  0  0  0  0  0  0  0
  -26.5262   14.0710   28.5164 C   0  0  0  0  0  0  0  0  0  0  0  0
  -27.1384   14.6703   27.8924 H   0  0  0  0  0  0  0  0  0  0  0  0
  -25.3049   13.8313   28.1231 N   0  0  0  0  0  0  0  0  0  0  0  0
  1  2  2  0
  2  3  1  0
  2 13  1  0
  3  4  1  0
  3  5  1  0
  5  6  1  0
  5  7  1  0
  5 10  1  0
  7  8  1  0
  7  9  1  0
  7 10  1  0
 10 11  1  0
 10 12  1  0
 13 14  2  0
 13 17  1  0
 14 15  1  0
 14 25  1  0
 15 16  1  0
 15 19  1  0
 16 17  2  0
 17 18  1  0
 19 20  1  0
 19 21  2  0
 21 22  1  0
 21 23  1  0
 23 24  1  0
 23 25  2  0
M  END
$$$$
