F421_16
     RDKit          3D

 19 19  0  0  0  0  0  0  0  0999 V2000
  -25.6399   14.2739   26.6846 O   0  0  0  0  0  0  0  0  0  0  0  0
  -25.2363   13.9666   27.8039 C   0  0  0  0  0  0  0  0  0  0  0  0
  -25.7321   14.7103   28.8731 N   0  0  0  0  0  0  0  0  0  0  0  0
  -26.4180   15.9708   28.6242 C   0  0  0  0  0  0  0  0  0  0  0  0
  -25.9975   16.7377   29.2827 H   0  0  0  0  0  0  0  0  0  0  0  0
  -27.4805   15.8398   28.8485 H   0  0  0  0  0  0  0  0  0  0  0  0
  -26.3109   16.3062   27.5898 H   0  0  0  0  0  0  0  0  0  0  0  0
  -25.6464   14.3068   30.2705 C   0  0  0  0  0  0  0  0  0  0  0  0
  -26.5965   14.5297   30.7669 H   0  0  0  0  0  0  0  0  0  0  0  0
  -24.8461   14.8772   30.7505 H   0  0  0  0  0  0  0  0  0  0  0  0
  -25.4584   13.2361   30.3731 H   0  0  0  0  0  0  0  0  0  0  0  0
  -24.2958   12.8817   28.0174 C   0  0  0  0  0  0  0  0  0  0  0  0
  -24.2626   11.7381   27.2764 C   0  0  0  0  0  0  0  0  0  0  0  0
  -24.8706   11.4068   26.4752 H   0  0  0  0  0  0  0  0  0  0  0  0
  -23.2350   11.0158   27.7536 N   0  0  0  0  0  0  0  0  0  0  0  0
  -22.9467   10.0848   27.3972 H   0  0  0  0  0  0  0  0  0  0  0  0
  -22.5931   11.6498   28.7724 N   0  0  0  0  0  0  0  0  0  0  0  0
  -23.2331   12.7753   28.9173 C   0  0  0  0  0  0  0  0  0  0  0  0
  -22.9558   13.5080   29.6337 H   0  0  0  0  0  0  0  0  0  0  0  0
  1  2  2  0
  2  3  1  0
  2 12  1  0
  3  4  1  0
  3  8  1  0
  4  5  1  0
  4  6  1  0
  4  7  1  0
  8  9  1  0
  8 10  1  0
  8 11  1  0
 12 13  2  0
 12 18  1  0
 13 14  1  0
 13 15  1  0
 15 16  1  0
 15 17  1  0
 17 18  2  0
 18 19  1  0
M  END
$$$$
