F14_36
     RDKit          3D

 19 19  0  0  0  0  0  0  0  0999 V2000
  -26.4981   15.1176   27.9547 Br  0  0  0  0  0  0  0  0  0  0  0  0
  -24.8434   14.3774   28.3997 C   0  0  0  0  0  0  0  0  0  0  0  0
  -24.1911   13.3679   27.7844 C   0  0  0  0  0  0  0  0  0  0  0  0
  -24.4453   12.7701   26.9477 H   0  0  0  0  0  0  0  0  0  0  0  0
  -23.0422   13.1971   28.4750 N   0  0  0  0  0  0  0  0  0  0  0  0
  -21.9784   12.2458   28.2221 C   0  0  0  0  0  0  0  0  0  0  0  0
  -21.6432   11.8679   29.1943 H   0  0  0  0  0  0  0  0  0  0  0  0
  -22.4182   11.4161   27.6587 H   0  0  0  0  0  0  0  0  0  0  0  0
  -20.8303   12.8731   27.4464 C   0  0  0  0  0  0  0  0  0  0  0  0
  -20.4159   13.7381   27.9774 H   0  0  0  0  0  0  0  0  0  0  0  0
  -21.1940   13.1996   26.4660 H   0  0  0  0  0  0  0  0  0  0  0  0
  -19.8098   11.8912   27.2448 O   0  0  0  0  0  0  0  0  0  0  0  0
  -18.6954   12.4269   26.5434 C   0  0  0  0  0  0  0  0  0  0  0  0
  -17.9588   11.6308   26.4080 H   0  0  0  0  0  0  0  0  0  0  0  0
  -18.2348   13.2353   27.1184 H   0  0  0  0  0  0  0  0  0  0  0  0
  -19.0021   12.7919   25.5587 H   0  0  0  0  0  0  0  0  0  0  0  0
  -22.9440   14.0662   29.5196 N   0  0  0  0  0  0  0  0  0  0  0  0
  -24.0403   14.7783   29.4621 C   0  0  0  0  0  0  0  0  0  0  0  0
  -24.2700   15.5535   30.1469 H   0  0  0  0  0  0  0  0  0  0  0  0
  1  2  1  0
  2  3  2  0
  2 18  1  0
  3  4  1  0
  3  5  1  0
  5  6  1  0
  5 17  1  0
  6  7  1  0
  6  8  1  0
  6  9  1  0
  9 10  1  0
  9 11  1  0
  9 12  1  0
 12 13  1  0
 13 14  1  0
 13 15  1  0
 13 16  1  0
 17 18  2  0
 18 19  1  0
M  END
$$$$
