F96_78
     RDKit          3D

 19 19  0  0  0  0  0  0  0  0999 V2000
  -20.4923   19.9637   27.2455 O   0  0  0  0  0  0  0  0  0  0  0  0
  -19.5972   19.8758   28.0737 C   0  0  0  0  0  0  0  0  0  0  0  0
  -18.5264   19.1193   27.8788 N   0  0  0  0  0  0  0  0  0  0  0  0
  -17.8134   19.0603   28.5854 H   0  0  0  0  0  0  0  0  0  0  0  0
  -18.3382   18.3508   26.6666 C   0  0  0  0  0  0  0  0  0  0  0  0
  -19.3173   18.1869   26.2035 H   0  0  0  0  0  0  0  0  0  0  0  0
  -17.7289   18.9356   25.9690 H   0  0  0  0  0  0  0  0  0  0  0  0
  -17.6818   17.0619   27.0092 C   0  0  0  0  0  0  0  0  0  0  0  0
  -18.2059   15.8193   26.8887 C   0  0  0  0  0  0  0  0  0  0  0  0
  -19.1498   15.4822   26.5447 H   0  0  0  0  0  0  0  0  0  0  0  0
  -17.2448   14.9730   27.3168 N   0  0  0  0  0  0  0  0  0  0  0  0
  -17.3277   13.9397   27.3496 H   0  0  0  0  0  0  0  0  0  0  0  0
  -16.1268   15.6344   27.7145 N   0  0  0  0  0  0  0  0  0  0  0  0
  -16.3996   16.8958   27.5231 C   0  0  0  0  0  0  0  0  0  0  0  0
  -15.7162   17.6774   27.7431 H   0  0  0  0  0  0  0  0  0  0  0  0
  -19.6541   20.5947   29.3929 C   0  0  0  0  0  0  0  0  0  0  0  0
  -18.6508   20.7718   29.7905 H   0  0  0  0  0  0  0  0  0  0  0  0
  -20.2208   19.9905   30.1054 H   0  0  0  0  0  0  0  0  0  0  0  0
  -20.1484   21.5608   29.2583 H   0  0  0  0  0  0  0  0  0  0  0  0
  1  2  2  0
  2  3  1  0
  2 16  1  0
  3  4  1  0
  3  5  1  0
  5  6  1  0
  5  7  1  0
  5  8  1  0
  8  9  2  0
  8 14  1  0
  9 10  1  0
  9 11  1  0
 11 12  1  0
 11 13  1  0
 13 14  2  0
 14 15  1  0
 16 17  1  0
 16 18  1  0
 16 19  1  0
M  END
$$$$
