F584_36
     RDKit          3D

 27 28  0  0  0  0  0  0  0  0999 V2000
  -22.4330   10.6461   31.1437 O   0  0  0  0  0  0  0  0  0  0  0  0
  -23.1132    9.4104   31.3173 C   0  0  0  0  0  0  0  0  0  0  0  0
  -22.5431    8.8134   32.0363 H   0  0  0  0  0  0  0  0  0  0  0  0
  -23.1554    8.8472   30.3786 H   0  0  0  0  0  0  0  0  0  0  0  0
  -24.1139    9.5645   31.7341 H   0  0  0  0  0  0  0  0  0  0  0  0
  -22.9566   11.5660   30.2596 C   0  0  0  0  0  0  0  0  0  0  0  0
  -23.4929   12.7284   30.8318 C   0  0  0  0  0  0  0  0  0  0  0  0
  -24.0611   13.6780   29.9695 C   0  0  0  0  0  0  0  0  0  0  0  0
  -24.6933   14.8899   30.3365 N   0  0  0  0  0  0  0  0  0  0  0  0
  -24.9548   15.5029   29.5549 H   0  0  0  0  0  0  0  0  0  0  0  0
  -25.0581   15.4421   31.5237 C   0  0  0  0  0  0  0  0  0  0  0  0
  -25.6194   16.5054   31.3973 O   0  0  0  0  0  0  0  0  0  0  0  0
  -24.8671   14.7637   32.8353 C   0  0  0  0  0  0  0  0  0  0  0  0
  -25.0295   15.5165   33.6163 H   0  0  0  0  0  0  0  0  0  0  0  0
  -25.6343   13.9912   32.9584 H   0  0  0  0  0  0  0  0  0  0  0  0
  -23.4666   14.2224   32.9624 C   0  0  0  0  0  0  0  0  0  0  0  0
  -22.7260   14.9031   32.5241 H   0  0  0  0  0  0  0  0  0  0  0  0
  -23.2244   14.1292   34.0277 H   0  0  0  0  0  0  0  0  0  0  0  0
  -23.3699   12.8443   32.3363 C   0  0  0  0  0  0  0  0  0  0  0  0
  -24.1142   12.1780   32.7918 H   0  0  0  0  0  0  0  0  0  0  0  0
  -22.3825   12.4698   32.6366 H   0  0  0  0  0  0  0  0  0  0  0  0
  -24.0894   13.4706   28.5884 C   0  0  0  0  0  0  0  0  0  0  0  0
  -24.5224   14.1983   27.9514 H   0  0  0  0  0  0  0  0  0  0  0  0
  -23.5480   12.3135   28.0447 C   0  0  0  0  0  0  0  0  0  0  0  0
  -23.5680   12.1596   26.9964 H   0  0  0  0  0  0  0  0  0  0  0  0
  -22.9780   11.3571   28.8773 C   0  0  0  0  0  0  0  0  0  0  0  0
  -22.5673   10.4785   28.4556 H   0  0  0  0  0  0  0  0  0  0  0  0
  1  2  1  0
  1  6  1  0
  2  3  1  0
  2  4  1  0
  2  5  1  0
  6  7  1  0
  6 26  2  0
  7  8  2  0
  7 19  1  0
  8  9  1  0
  8 22  1  0
  9 10  1  0
  9 11  1  0
 11 12  2  0
 11 13  1  0
 13 14  1  0
 13 15  1  0
 13 16  1  0
 16 17  1  0
 16 18  1  0
 16 19  1  0
 19 20  1  0
 19 21  1  0
 22 23  1  0
 22 24  2  0
 24 25  1  0
 24 26  1  0
 26 27  1  0
M  END
$$$$
