F600_35
     RDKit          3D

 16 16  0  0  0  0  0  0  0  0999 V2000
  -21.7093   12.1280   27.1128 O   0  0  0  0  0  0  0  0  0  0  0  0
  -20.7259   13.0167   27.6432 C   0  0  0  0  0  0  0  0  0  0  0  0
  -21.2208   13.8811   28.1027 H   0  0  0  0  0  0  0  0  0  0  0  0
  -20.1284   12.5049   28.4063 H   0  0  0  0  0  0  0  0  0  0  0  0
  -19.8662   13.4672   26.5117 C   0  0  0  0  0  0  0  0  0  0  0  0
  -19.0711   12.3340   25.5027 S   0  0  0  0  0  0  0  0  0  0  0  0
  -18.4331   13.6755   24.6741 C   0  0  0  0  0  0  0  0  0  0  0  0
  -17.6158   13.4969   23.6226 N   0  0  0  0  0  0  0  0  0  0  0  0
  -17.3566   12.5768   23.2893 H   0  0  0  0  0  0  0  0  0  0  0  0
  -17.2356   14.2960   23.1297 H   0  0  0  0  0  0  0  0  0  0  0  0
  -18.7837   14.8388   25.1260 N   0  0  0  0  0  0  0  0  0  0  0  0
  -19.6282   14.7078   26.2088 N   0  0  0  0  0  0  0  0  0  0  0  0
  -22.6478   11.7346   28.1040 C   0  0  0  0  0  0  0  0  0  0  0  0
  -23.3725   11.0578   27.6428 H   0  0  0  0  0  0  0  0  0  0  0  0
  -23.1825   12.6061   28.4932 H   0  0  0  0  0  0  0  0  0  0  0  0
  -22.1450   11.2048   28.9188 H   0  0  0  0  0  0  0  0  0  0  0  0
  1  2  1  0
  1 13  1  0
  2  3  1  0
  2  4  1  0
  2  5  1  0
  5  6  1  0
  5 12  2  0
  6  7  1  0
  7  8  1  0
  7 11  2  0
  8  9  1  0
  8 10  1  0
 11 12  1  0
 13 14  1  0
 13 15  1  0
 13 16  1  0
M  END
$$$$
