F535_61
     RDKit          3D

 23 24  0  0  0  0  0  0  0  0999 V2000
  -20.4720   12.1149   26.8882 N   0  0  0  0  0  0  0  0  0  0  0  0
  -20.1329   11.6248   27.7300 H   0  0  0  0  0  0  0  0  0  0  0  0
  -20.9432   11.3793   26.3428 H   0  0  0  0  0  0  0  0  0  0  0  0
  -21.5089   13.1086   27.3188 C   0  0  0  0  0  0  0  0  0  0  0  0
  -20.9797   14.0369   27.5528 H   0  0  0  0  0  0  0  0  0  0  0  0
  -22.1736   13.2631   26.4620 H   0  0  0  0  0  0  0  0  0  0  0  0
  -22.2632   12.6132   28.4925 C   0  0  0  0  0  0  0  0  0  0  0  0
  -23.5523   12.8666   28.7543 N   0  0  0  0  0  0  0  0  0  0  0  0
  -23.8411   12.2341   29.9148 C   0  0  0  0  0  0  0  0  0  0  0  0
  -22.7625   11.6147   30.3364 N   0  0  0  0  0  0  0  0  0  0  0  0
  -21.7776   11.8561   29.4342 N   0  0  0  0  0  0  0  0  0  0  0  0
  -25.1628   12.3358   30.4433 C   0  0  0  0  0  0  0  0  0  0  0  0
  -25.3898   11.8424   31.3534 H   0  0  0  0  0  0  0  0  0  0  0  0
  -26.1074   13.0615   29.7759 C   0  0  0  0  0  0  0  0  0  0  0  0
  -27.0942   13.1471   30.1565 H   0  0  0  0  0  0  0  0  0  0  0  0
  -25.7657   13.7140   28.5499 C   0  0  0  0  0  0  0  0  0  0  0  0
  -26.5132   14.2727   28.0429 H   0  0  0  0  0  0  0  0  0  0  0  0
  -24.5003   13.6203   28.0402 C   0  0  0  0  0  0  0  0  0  0  0  0
  -24.1646   14.0695   27.1425 H   0  0  0  0  0  0  0  0  0  0  0  0
  -19.3327   12.6762   26.1251 C   0  0  0  0  0  0  0  0  0  0  0  0
  -18.8251   13.4103   26.7542 H   0  0  0  0  0  0  0  0  0  0  0  0
  -19.7228   13.1352   25.2138 H   0  0  0  0  0  0  0  0  0  0  0  0
  -18.6616   11.8495   25.8807 H   0  0  0  0  0  0  0  0  0  0  0  0
  1  2  1  0
  1  3  1  0
  1  4  1  0
  1 20  1  0
  4  5  1  0
  4  6  1  0
  4  7  1  0
  7  8  1  0
  7 11  2  0
  8  9  1  0
  8 18  1  0
  9 10  2  0
  9 12  1  0
 10 11  1  0
 12 13  1  0
 12 14  2  0
 14 15  1  0
 14 16  1  0
 16 17  1  0
 16 18  2  0
 18 19  1  0
 20 21  1  0
 20 22  1  0
 20 23  1  0
M  END
$$$$
