F362_32
     RDKit          3D

 30 31  0  0  0  0  0  0  0  0999 V2000
  -24.3062   14.5364   31.5058 N   0  0  0  0  0  0  0  0  0  0  0  0
  -24.9856   13.7701   32.5682 C   0  0  0  0  0  0  0  0  0  0  0  0
  -24.3361   13.6172   33.4345 H   0  0  0  0  0  0  0  0  0  0  0  0
  -25.8273   14.3521   32.9647 H   0  0  0  0  0  0  0  0  0  0  0  0
  -25.5290   12.4557   32.0282 C   0  0  0  0  0  0  0  0  0  0  0  0
  -24.7463   11.8387   31.5789 H   0  0  0  0  0  0  0  0  0  0  0  0
  -26.2871   12.6332   31.2575 H   0  0  0  0  0  0  0  0  0  0  0  0
  -25.9973   11.8802   32.8335 H   0  0  0  0  0  0  0  0  0  0  0  0
  -23.6553   15.7655   32.0022 C   0  0  0  0  0  0  0  0  0  0  0  0
  -24.0732   16.0708   32.9676 H   0  0  0  0  0  0  0  0  0  0  0  0
  -22.5915   15.5798   32.1981 H   0  0  0  0  0  0  0  0  0  0  0  0
  -23.7780   16.8922   30.9857 C   0  0  0  0  0  0  0  0  0  0  0  0
  -24.8242   17.1429   30.7866 H   0  0  0  0  0  0  0  0  0  0  0  0
  -23.3158   16.6149   30.0331 H   0  0  0  0  0  0  0  0  0  0  0  0
  -23.2780   17.7920   31.3573 H   0  0  0  0  0  0  0  0  0  0  0  0
  -24.2713   14.1417   30.1212 C   0  0  0  0  0  0  0  0  0  0  0  0
  -25.1923   14.6781   29.1492 N   0  0  0  0  0  0  0  0  0  0  0  0
  -26.1876   15.5794   29.3004 N   0  0  0  0  0  0  0  0  0  0  0  0
  -26.6649   15.6733   28.0977 C   0  0  0  0  0  0  0  0  0  0  0  0
  -27.4788   16.3147   27.8631 H   0  0  0  0  0  0  0  0  0  0  0  0
  -26.0711   14.9138   27.1710 N   0  0  0  0  0  0  0  0  0  0  0  0
  -25.1421   14.2877   27.8339 C   0  0  0  0  0  0  0  0  0  0  0  0
  -24.2247   13.3676   27.3557 N   0  0  0  0  0  0  0  0  0  0  0  0
  -23.3783   12.8594   28.1908 C   0  0  0  0  0  0  0  0  0  0  0  0
  -22.3708   11.8581   27.6962 C   0  0  0  0  0  0  0  0  0  0  0  0
  -21.7259   11.5052   28.5043 H   0  0  0  0  0  0  0  0  0  0  0  0
  -21.7503   12.3220   26.9242 H   0  0  0  0  0  0  0  0  0  0  0  0
  -22.8966   11.0017   27.2633 H   0  0  0  0  0  0  0  0  0  0  0  0
  -23.3580   13.2264   29.6312 C   0  0  0  0  0  0  0  0  0  0  0  0
  -22.6540   12.7766   30.2736 H   0  0  0  0  0  0  0  0  0  0  0  0
  1  2  1  0
  1  9  1  0
  1 16  1  0
  2  3  1  0
  2  4  1  0
  2  5  1  0
  5  6  1  0
  5  7  1  0
  5  8  1  0
  9 10  1  0
  9 11  1  0
  9 12  1  0
 12 13  1  0
 12 14  1  0
 12 15  1  0
 16 17  1  0
 16 29  2  0
 17 18  1  0
 17 22  1  0
 18 19  2  0
 19 20  1  0
 19 21  1  0
 21 22  2  0
 22 23  1  0
 23 24  2  0
 24 25  1  0
 24 29  1  0
 25 26  1  0
 25 27  1  0
 25 28  1  0
 29 30  1  0
M  END
$$$$
