F760_47
     RDKit          3D

 17 18  0  0  0  0  0  0  0  0999 V2000
  -27.1027   15.4998   29.0008 Br  0  0  0  0  0  0  0  0  0  0  0  0
  -25.7161   14.2203   29.1266 C   0  0  0  0  0  0  0  0  0  0  0  0
  -24.7437   14.1495   28.1318 C   0  0  0  0  0  0  0  0  0  0  0  0
  -24.7630   14.8004   27.2976 H   0  0  0  0  0  0  0  0  0  0  0  0
  -23.7472   13.1925   28.2684 C   0  0  0  0  0  0  0  0  0  0  0  0
  -22.6874   12.9418   27.4095 N   0  0  0  0  0  0  0  0  0  0  0  0
  -22.4694   13.4256   26.5300 H   0  0  0  0  0  0  0  0  0  0  0  0
  -21.9154   11.9295   27.8705 C   0  0  0  0  0  0  0  0  0  0  0  0
  -20.9408   11.5640   27.2560 O   0  0  0  0  0  0  0  0  0  0  0  0
  -22.4958   11.4217   29.1883 C   0  0  0  0  0  0  0  0  0  0  0  0
  -22.7917   10.3753   29.0856 H   0  0  0  0  0  0  0  0  0  0  0  0
  -21.7725   11.5700   29.9936 H   0  0  0  0  0  0  0  0  0  0  0  0
  -23.6828   12.3222   29.3378 C   0  0  0  0  0  0  0  0  0  0  0  0
  -24.6523   12.3938   30.3323 C   0  0  0  0  0  0  0  0  0  0  0  0
  -24.6215   11.7354   31.1635 H   0  0  0  0  0  0  0  0  0  0  0  0
  -25.6694   13.3459   30.2232 C   0  0  0  0  0  0  0  0  0  0  0  0
  -26.4136   13.4102   30.9745 H   0  0  0  0  0  0  0  0  0  0  0  0
  1  2  1  0
  2  3  1  0
  2 16  2  0
  3  4  1  0
  3  5  2  0
  5  6  1  0
  5 13  1  0
  6  7  1  0
  6  8  1  0
  8  9  2  0
  8 10  1  0
 10 11  1  0
 10 12  1  0
 10 13  1  0
 13 14  2  0
 14 15  1  0
 14 16  1  0
 16 17  1  0
M  END
$$$$
