F393_3
     RDKit          3D

 24 24  0  0  0  0  0  0  0  0999 V2000
  -23.5904   12.7593   26.3489 O   0  0  0  0  0  0  0  0  0  0  0  0
  -23.2448   13.2779   27.4031 C   0  0  0  0  0  0  0  0  0  0  0  0
  -21.9785   13.2338   27.8992 O   0  0  0  0  0  0  0  0  0  0  0  0
  -21.0529   12.4670   27.1185 C   0  0  0  0  0  0  0  0  0  0  0  0
  -21.3545   11.4141   27.1173 H   0  0  0  0  0  0  0  0  0  0  0  0
  -21.0332   12.8480   26.0916 H   0  0  0  0  0  0  0  0  0  0  0  0
  -19.6788   12.6059   27.7440 C   0  0  0  0  0  0  0  0  0  0  0  0
  -19.6887   12.2514   28.7805 H   0  0  0  0  0  0  0  0  0  0  0  0
  -19.3726   13.6572   27.7695 H   0  0  0  0  0  0  0  0  0  0  0  0
  -18.9343   12.0344   27.1823 H   0  0  0  0  0  0  0  0  0  0  0  0
  -24.1159   13.9702   28.2040 N   0  0  0  0  0  0  0  0  0  0  0  0
  -25.5184   14.1397   27.8259 C   0  0  0  0  0  0  0  0  0  0  0  0
  -25.6436   15.1979   27.5684 H   0  0  0  0  0  0  0  0  0  0  0  0
  -25.7700   13.5428   26.9434 H   0  0  0  0  0  0  0  0  0  0  0  0
  -26.4362   13.7768   28.9934 C   0  0  0  0  0  0  0  0  0  0  0  0
  -26.3844   12.7048   29.2199 H   0  0  0  0  0  0  0  0  0  0  0  0
  -27.4745   14.0181   28.7438 H   0  0  0  0  0  0  0  0  0  0  0  0
  -26.0849   14.5198   30.1698 O   0  0  0  0  0  0  0  0  0  0  0  0
  -24.7361   14.2331   30.5694 C   0  0  0  0  0  0  0  0  0  0  0  0
  -24.5270   14.8091   31.4763 H   0  0  0  0  0  0  0  0  0  0  0  0
  -24.6585   13.1683   30.8214 H   0  0  0  0  0  0  0  0  0  0  0  0
  -23.7462   14.6128   29.4671 C   0  0  0  0  0  0  0  0  0  0  0  0
  -22.7276   14.3579   29.7725 H   0  0  0  0  0  0  0  0  0  0  0  0
  -23.7858   15.6930   29.2862 H   0  0  0  0  0  0  0  0  0  0  0  0
  1  2  2  0
  2  3  1  0
  2 11  1  0
  3  4  1  0
  4  5  1  0
  4  6  1  0
  4  7  1  0
  7  8  1  0
  7  9  1  0
  7 10  1  0
 11 12  1  0
 11 22  1  0
 12 13  1  0
 12 14  1  0
 12 15  1  0
 15 16  1  0
 15 17  1  0
 15 18  1  0
 18 19  1  0
 19 20  1  0
 19 21  1  0
 19 22  1  0
 22 23  1  0
 22 24  1  0
M  END
$$$$
