F584_9
     RDKit          3D

 27 28  0  0  0  0  0  0  0  0999 V2000
  -23.0722   12.4205   31.9633 O   0  0  0  0  0  0  0  0  0  0  0  0
  -23.7324   11.5336   32.8563 C   0  0  0  0  0  0  0  0  0  0  0  0
  -23.4252   11.7944   33.8741 H   0  0  0  0  0  0  0  0  0  0  0  0
  -23.4331   10.4954   32.6755 H   0  0  0  0  0  0  0  0  0  0  0  0
  -24.8196   11.6501   32.7981 H   0  0  0  0  0  0  0  0  0  0  0  0
  -23.2891   12.2720   30.6095 C   0  0  0  0  0  0  0  0  0  0  0  0
  -23.9446   13.3363   29.9742 C   0  0  0  0  0  0  0  0  0  0  0  0
  -24.2098   13.2138   28.6020 C   0  0  0  0  0  0  0  0  0  0  0  0
  -24.8949   14.1416   27.7817 N   0  0  0  0  0  0  0  0  0  0  0  0
  -24.8989   13.9213   26.7784 H   0  0  0  0  0  0  0  0  0  0  0  0
  -25.5828   15.2883   28.0252 C   0  0  0  0  0  0  0  0  0  0  0  0
  -26.0572   15.7756   27.0255 O   0  0  0  0  0  0  0  0  0  0  0  0
  -25.8048   15.8353   29.3921 C   0  0  0  0  0  0  0  0  0  0  0  0
  -26.1746   16.8613   29.2744 H   0  0  0  0  0  0  0  0  0  0  0  0
  -26.5913   15.2574   29.8900 H   0  0  0  0  0  0  0  0  0  0  0  0
  -24.5177   15.8668   30.1748 C   0  0  0  0  0  0  0  0  0  0  0  0
  -23.6652   16.1504   29.5448 H   0  0  0  0  0  0  0  0  0  0  0  0
  -24.6045   16.6295   30.9577 H   0  0  0  0  0  0  0  0  0  0  0  0
  -24.2708   14.5297   30.8468 C   0  0  0  0  0  0  0  0  0  0  0  0
  -25.1316   14.2672   31.4758 H   0  0  0  0  0  0  0  0  0  0  0  0
  -23.4256   14.7094   31.5241 H   0  0  0  0  0  0  0  0  0  0  0  0
  -23.8319   12.0698   27.8950 C   0  0  0  0  0  0  0  0  0  0  0  0
  -24.0398   11.9937   26.8588 H   0  0  0  0  0  0  0  0  0  0  0  0
  -23.1798   11.0306   28.5451 C   0  0  0  0  0  0  0  0  0  0  0  0
  -22.8915   10.1650   28.0061 H   0  0  0  0  0  0  0  0  0  0  0  0
  -22.9042   11.1276   29.9043 C   0  0  0  0  0  0  0  0  0  0  0  0
  -22.4068   10.3321   30.3923 H   0  0  0  0  0  0  0  0  0  0  0  0
  1  2  1  0
  1  6  1  0
  2  3  1  0
  2  4  1  0
  2  5  1  0
  6  7  1  0
  6 26  2  0
  7  8  2  0
  7 19  1  0
  8  9  1  0
  8 22  1  0
  9 10  1  0
  9 11  1  0
 11 12  2  0
 11 13  1  0
 13 14  1  0
 13 15  1  0
 13 16  1  0
 16 17  1  0
 16 18  1  0
 16 19  1  0
 19 20  1  0
 19 21  1  0
 22 23  1  0
 22 24  2  0
 24 25  1  0
 24 26  1  0
 26 27  1  0
M  END
$$$$
