F650_13
     RDKit          3D

 23 24  0  0  0  0  0  0  0  0999 V2000
  -25.4549   14.4833   26.7015 O   0  0  0  0  0  0  0  0  0  0  0  0
  -24.7984   14.1893   27.6956 C   0  0  0  0  0  0  0  0  0  0  0  0
  -24.9515   14.9965   28.8110 N   0  0  0  0  0  0  0  0  0  0  0  0
  -24.2209   14.9335   30.0722 C   0  0  0  0  0  0  0  0  0  0  0  0
  -24.2760   13.9410   30.5208 H   0  0  0  0  0  0  0  0  0  0  0  0
  -23.1741   15.1824   29.8690 H   0  0  0  0  0  0  0  0  0  0  0  0
  -24.8876   15.9733   30.9654 C   0  0  0  0  0  0  0  0  0  0  0  0
  -25.7139   15.5127   31.5208 H   0  0  0  0  0  0  0  0  0  0  0  0
  -24.1955   16.4140   31.6867 H   0  0  0  0  0  0  0  0  0  0  0  0
  -25.4400   16.9840   29.9722 C   0  0  0  0  0  0  0  0  0  0  0  0
  -24.6375   17.6537   29.6402 H   0  0  0  0  0  0  0  0  0  0  0  0
  -26.2490   17.5927   30.3851 H   0  0  0  0  0  0  0  0  0  0  0  0
  -25.8960   16.1052   28.8193 C   0  0  0  0  0  0  0  0  0  0  0  0
  -25.9024   16.6372   27.8638 H   0  0  0  0  0  0  0  0  0  0  0  0
  -26.8944   15.6904   29.0014 H   0  0  0  0  0  0  0  0  0  0  0  0
  -23.8518   13.0904   27.7024 C   0  0  0  0  0  0  0  0  0  0  0  0
  -24.1674   11.8149   27.3388 C   0  0  0  0  0  0  0  0  0  0  0  0
  -25.0736   11.3925   26.9885 H   0  0  0  0  0  0  0  0  0  0  0  0
  -23.0491   11.0923   27.5121 N   0  0  0  0  0  0  0  0  0  0  0  0
  -22.9625   10.0752   27.3224 H   0  0  0  0  0  0  0  0  0  0  0  0
  -22.0178   11.8477   27.9819 N   0  0  0  0  0  0  0  0  0  0  0  0
  -22.5137   13.0462   28.1021 C   0  0  0  0  0  0  0  0  0  0  0  0
  -21.9550   13.8676   28.4725 H   0  0  0  0  0  0  0  0  0  0  0  0
  1  2  2  0
  2  3  1  0
  2 16  1  0
  3  4  1  0
  3 13  1  0
  4  5  1  0
  4  6  1  0
  4  7  1  0
  7  8  1  0
  7  9  1  0
  7 10  1  0
 10 11  1  0
 10 12  1  0
 10 13  1  0
 13 14  1  0
 13 15  1  0
 16 17  2  0
 16 22  1  0
 17 18  1  0
 17 19  1  0
 19 20  1  0
 19 21  1  0
 21 22  2  0
 22 23  1  0
M  END
$$$$
