F367_16
     RDKit          3D

 31 32  0  0  0  0  0  0  0  0999 V2000
  -21.1329   13.5113   28.5327 O   0  0  0  0  0  0  0  0  0  0  0  0
  -20.9070   12.9754   27.4556 C   0  0  0  0  0  0  0  0  0  0  0  0
  -21.7689   11.9948   27.0643 N   0  0  0  0  0  0  0  0  0  0  0  0
  -21.6880   11.5754   26.1305 H   0  0  0  0  0  0  0  0  0  0  0  0
  -22.8448   11.5302   27.9166 C   0  0  0  0  0  0  0  0  0  0  0  0
  -22.4646   11.4444   28.9411 H   0  0  0  0  0  0  0  0  0  0  0  0
  -23.1492   10.5311   27.5850 H   0  0  0  0  0  0  0  0  0  0  0  0
  -23.9747   12.4943   27.8453 C   0  0  0  0  0  0  0  0  0  0  0  0
  -24.7064   12.9741   28.8786 C   0  0  0  0  0  0  0  0  0  0  0  0
  -24.6531   12.7991   29.9204 H   0  0  0  0  0  0  0  0  0  0  0  0
  -25.6207   13.8053   28.3305 N   0  0  0  0  0  0  0  0  0  0  0  0
  -26.6465   14.5734   29.0042 C   0  0  0  0  0  0  0  0  0  0  0  0
  -27.6168   14.1384   28.7402 H   0  0  0  0  0  0  0  0  0  0  0  0
  -26.5028   14.4436   30.0819 H   0  0  0  0  0  0  0  0  0  0  0  0
  -26.6059   16.0430   28.6262 C   0  0  0  0  0  0  0  0  0  0  0  0
  -26.7445   16.1758   27.5477 H   0  0  0  0  0  0  0  0  0  0  0  0
  -25.6458   16.4947   28.8965 H   0  0  0  0  0  0  0  0  0  0  0  0
  -27.3990   16.5908   29.1440 H   0  0  0  0  0  0  0  0  0  0  0  0
  -25.4924   13.8712   26.9813 N   0  0  0  0  0  0  0  0  0  0  0  0
  -24.4987   13.0749   26.6969 C   0  0  0  0  0  0  0  0  0  0  0  0
  -24.1507   12.9134   25.7078 H   0  0  0  0  0  0  0  0  0  0  0  0
  -19.7935   13.3793   26.5756 C   0  0  0  0  0  0  0  0  0  0  0  0
  -19.2057   14.6324   26.7897 C   0  0  0  0  0  0  0  0  0  0  0  0
  -19.5702   15.2580   27.5667 H   0  0  0  0  0  0  0  0  0  0  0  0
  -18.1942   15.0849   26.0460 N   0  0  0  0  0  0  0  0  0  0  0  0
  -17.7077   14.3297   25.0632 C   0  0  0  0  0  0  0  0  0  0  0  0
  -16.9033   14.7171   24.4896 H   0  0  0  0  0  0  0  0  0  0  0  0
  -18.2273   13.0678   24.7875 C   0  0  0  0  0  0  0  0  0  0  0  0
  -17.8161   12.4879   24.0032 H   0  0  0  0  0  0  0  0  0  0  0  0
  -19.2812   12.5774   25.5479 C   0  0  0  0  0  0  0  0  0  0  0  0
  -19.6748   11.6144   25.3510 H   0  0  0  0  0  0  0  0  0  0  0  0
  1  2  2  0
  2  3  1  0
  2 22  1  0
  3  4  1  0
  3  5  1  0
  5  6  1  0
  5  7  1  0
  5  8  1  0
  8  9  2  0
  8 20  1  0
  9 10  1  0
  9 11  1  0
 11 12  1  0
 11 19  1  0
 12 13  1  0
 12 14  1  0
 12 15  1  0
 15 16  1  0
 15 17  1  0
 15 18  1  0
 19 20  2  0
 20 21  1  0
 22 23  1  0
 22 30  2  0
 23 24  1  0
 23 25  2  0
 25 26  1  0
 26 27  1  0
 26 28  2  0
 28 29  1  0
 28 30  1  0
 30 31  1  0
M  END
$$$$
