F650_36
     RDKit          3D

 23 24  0  0  0  0  0  0  0  0999 V2000
  -25.2037   13.9836   26.6842 O   0  0  0  0  0  0  0  0  0  0  0  0
  -24.8231   13.5328   27.7601 C   0  0  0  0  0  0  0  0  0  0  0  0
  -25.5759   13.8547   28.8778 N   0  0  0  0  0  0  0  0  0  0  0  0
  -25.2900   13.5413   30.2736 C   0  0  0  0  0  0  0  0  0  0  0  0
  -25.1363   12.4720   30.4233 H   0  0  0  0  0  0  0  0  0  0  0  0
  -24.3828   14.0823   30.5624 H   0  0  0  0  0  0  0  0  0  0  0  0
  -26.5108   14.0299   31.0445 C   0  0  0  0  0  0  0  0  0  0  0  0
  -27.2571   13.2284   31.1075 H   0  0  0  0  0  0  0  0  0  0  0  0
  -26.2666   14.3493   32.0602 H   0  0  0  0  0  0  0  0  0  0  0  0
  -27.0443   15.1579   30.1749 C   0  0  0  0  0  0  0  0  0  0  0  0
  -26.4588   16.0686   30.3493 H   0  0  0  0  0  0  0  0  0  0  0  0
  -28.0975   15.3831   30.3633 H   0  0  0  0  0  0  0  0  0  0  0  0
  -26.7970   14.6407   28.7674 C   0  0  0  0  0  0  0  0  0  0  0  0
  -26.6930   15.4477   28.0367 H   0  0  0  0  0  0  0  0  0  0  0  0
  -27.5980   13.9671   28.4409 H   0  0  0  0  0  0  0  0  0  0  0  0
  -23.6081   12.7510   27.8870 C   0  0  0  0  0  0  0  0  0  0  0  0
  -22.4394   13.2414   28.3896 C   0  0  0  0  0  0  0  0  0  0  0  0
  -22.1916   14.1960   28.7764 H   0  0  0  0  0  0  0  0  0  0  0  0
  -21.5514   12.2375   28.3101 N   0  0  0  0  0  0  0  0  0  0  0  0
  -20.5604   12.2943   28.6145 H   0  0  0  0  0  0  0  0  0  0  0  0
  -22.0955   11.1128   27.7680 N   0  0  0  0  0  0  0  0  0  0  0  0
  -23.3305   11.4351   27.5081 C   0  0  0  0  0  0  0  0  0  0  0  0
  -24.0175   10.7683   27.0527 H   0  0  0  0  0  0  0  0  0  0  0  0
  1  2  2  0
  2  3  1  0
  2 16  1  0
  3  4  1  0
  3 13  1  0
  4  5  1  0
  4  6  1  0
  4  7  1  0
  7  8  1  0
  7  9  1  0
  7 10  1  0
 10 11  1  0
 10 12  1  0
 10 13  1  0
 13 14  1  0
 13 15  1  0
 16 17  2  0
 16 22  1  0
 17 18  1  0
 17 19  1  0
 19 20  1  0
 19 21  1  0
 21 22  2  0
 22 23  1  0
M  END
$$$$
