F13_99
     RDKit          3D

 16 16  0  0  0  0  0  0  0  0999 V2000
  -25.5380   13.0844   30.5709 Br  0  0  0  0  0  0  0  0  0  0  0  0
  -23.8600   12.6457   29.8794 C   0  0  0  0  0  0  0  0  0  0  0  0
  -23.0508   13.4096   29.1164 C   0  0  0  0  0  0  0  0  0  0  0  0
  -23.1546   14.3952   28.7449 H   0  0  0  0  0  0  0  0  0  0  0  0
  -21.9552   12.6534   28.8741 N   0  0  0  0  0  0  0  0  0  0  0  0
  -20.7848   12.9998   28.0921 C   0  0  0  0  0  0  0  0  0  0  0  0
  -20.7326   14.0937   28.0625 H   0  0  0  0  0  0  0  0  0  0  0  0
  -19.9095   12.6225   28.6324 H   0  0  0  0  0  0  0  0  0  0  0  0
  -20.8550   12.4287   26.6846 C   0  0  0  0  0  0  0  0  0  0  0  0
  -21.7679   12.7730   26.1904 H   0  0  0  0  0  0  0  0  0  0  0  0
  -20.8442   11.3336   26.6855 H   0  0  0  0  0  0  0  0  0  0  0  0
  -19.7499   12.8973   25.9179 O   0  0  0  0  0  0  0  0  0  0  0  0
  -19.7962   13.8696   25.9124 H   0  0  0  0  0  0  0  0  0  0  0  0
  -22.0411   11.4307   29.4663 N   0  0  0  0  0  0  0  0  0  0  0  0
  -23.2007   11.4365   30.0708 C   0  0  0  0  0  0  0  0  0  0  0  0
  -23.5719   10.6169   30.6302 H   0  0  0  0  0  0  0  0  0  0  0  0
  1  2  1  0
  2  3  2  0
  2 15  1  0
  3  4  1  0
  3  5  1  0
  5  6  1  0
  5 14  1  0
  6  7  1  0
  6  8  1  0
  6  9  1  0
  9 10  1  0
  9 11  1  0
  9 12  1  0
 12 13  1  0
 14 15  2  0
 15 16  1  0
M  END
$$$$
