F763_25
     RDKit          3D

 19 19  0  0  0  0  0  0  0  0999 V2000
  -27.0886   15.2296   29.6304 Br  0  0  0  0  0  0  0  0  0  0  0  0
  -25.7398   14.0474   29.1005 C   0  0  0  0  0  0  0  0  0  0  0  0
  -25.6004   13.6829   27.7962 C   0  0  0  0  0  0  0  0  0  0  0  0
  -26.2470   14.0532   27.0469 H   0  0  0  0  0  0  0  0  0  0  0  0
  -24.5709   12.7784   27.3955 C   0  0  0  0  0  0  0  0  0  0  0  0
  -24.4029   12.3920   26.2316 O   0  0  0  0  0  0  0  0  0  0  0  0
  -23.7074   12.2945   28.3834 N   0  0  0  0  0  0  0  0  0  0  0  0
  -22.6323   11.3704   28.0184 C   0  0  0  0  0  0  0  0  0  0  0  0
  -22.4089   10.7182   28.8716 H   0  0  0  0  0  0  0  0  0  0  0  0
  -22.9699   10.7002   27.2171 H   0  0  0  0  0  0  0  0  0  0  0  0
  -21.3597   12.1026   27.5964 C   0  0  0  0  0  0  0  0  0  0  0  0
  -20.6207   11.4172   27.1689 H   0  0  0  0  0  0  0  0  0  0  0  0
  -20.8962   12.5927   28.4592 H   0  0  0  0  0  0  0  0  0  0  0  0
  -21.6614   13.1046   26.6323 O   0  0  0  0  0  0  0  0  0  0  0  0
  -20.8290   13.5641   26.4209 H   0  0  0  0  0  0  0  0  0  0  0  0
  -23.8544   12.6634   29.7161 C   0  0  0  0  0  0  0  0  0  0  0  0
  -23.1571   12.2376   30.3956 H   0  0  0  0  0  0  0  0  0  0  0  0
  -24.8482   13.5243   30.0786 C   0  0  0  0  0  0  0  0  0  0  0  0
  -24.9677   13.8120   31.0917 H   0  0  0  0  0  0  0  0  0  0  0  0
  1  2  1  0
  2  3  2  0
  2 18  1  0
  3  4  1  0
  3  5  1  0
  5  6  2  0
  5  7  1  0
  7  8  1  0
  7 16  1  0
  8  9  1  0
  8 10  1  0
  8 11  1  0
 11 12  1  0
 11 13  1  0
 11 14  1  0
 14 15  1  0
 16 17  1  0
 16 18  2  0
 18 19  1  0
M  END
$$$$
