F374_53
     RDKit          3D

 18 18  0  0  0  0  0  0  0  0999 V2000
  -22.4485   11.0658   27.8060 O   0  0  0  0  0  0  0  0  0  0  0  0
  -21.7623   12.0858   27.8418 C   0  0  0  0  0  0  0  0  0  0  0  0
  -22.2622   13.1543   28.5345 N   0  0  0  0  0  0  0  0  0  0  0  0
  -21.6517   13.9804   28.6090 H   0  0  0  0  0  0  0  0  0  0  0  0
  -23.5653   13.1585   29.1652 C   0  0  0  0  0  0  0  0  0  0  0  0
  -24.3066   12.8353   28.4258 H   0  0  0  0  0  0  0  0  0  0  0  0
  -23.5511   12.4209   29.9738 H   0  0  0  0  0  0  0  0  0  0  0  0
  -23.9211   14.5299   29.7051 C   0  0  0  0  0  0  0  0  0  0  0  0
  -24.9076   14.5104   30.1777 H   0  0  0  0  0  0  0  0  0  0  0  0
  -23.1892   14.8588   30.4502 H   0  0  0  0  0  0  0  0  0  0  0  0
  -23.9377   15.2737   28.9017 H   0  0  0  0  0  0  0  0  0  0  0  0
  -20.4621   12.2547   27.2414 C   0  0  0  0  0  0  0  0  0  0  0  0
  -19.6681   13.3425   27.4636 N   0  0  0  0  0  0  0  0  0  0  0  0
  -18.5690   13.1782   26.7713 N   0  0  0  0  0  0  0  0  0  0  0  0
  -18.6636   12.0074   26.1230 N   0  0  0  0  0  0  0  0  0  0  0  0
  -17.9170   11.6423   25.5027 H   0  0  0  0  0  0  0  0  0  0  0  0
  -19.8188   11.4155   26.3926 C   0  0  0  0  0  0  0  0  0  0  0  0
  -20.1012   10.4784   25.9871 H   0  0  0  0  0  0  0  0  0  0  0  0
  1  2  2  0
  2  3  1  0
  2 12  1  0
  3  4  1  0
  3  5  1  0
  5  6  1  0
  5  7  1  0
  5  8  1  0
  8  9  1  0
  8 10  1  0
  8 11  1  0
 12 13  1  0
 12 17  2  0
 13 14  2  0
 14 15  1  0
 15 16  1  0
 15 17  1  0
 17 18  1  0
M  END
$$$$
