F274_67
     RDKit          3D

 26 27  0  0  0  0  0  0  0  0999 V2000
  -23.3968   13.5155   29.8689 O   0  0  0  0  0  0  0  0  0  0  0  0
  -23.2742   12.3371   30.2268 C   0  0  0  0  0  0  0  0  0  0  0  0
  -23.0639   11.3397   29.2650 N   0  0  0  0  0  0  0  0  0  0  0  0
  -22.9584   11.6768   27.8478 C   0  0  0  0  0  0  0  0  0  0  0  0
  -22.9855   10.7480   27.2656 H   0  0  0  0  0  0  0  0  0  0  0  0
  -23.8220   12.2789   27.5449 H   0  0  0  0  0  0  0  0  0  0  0  0
  -21.6955   12.4053   27.5951 C   0  0  0  0  0  0  0  0  0  0  0  0
  -21.5984   13.6497   28.0682 O   0  0  0  0  0  0  0  0  0  0  0  0
  -20.4081   14.1737   27.7478 N   0  0  0  0  0  0  0  0  0  0  0  0
  -19.7639   13.2769   27.0842 C   0  0  0  0  0  0  0  0  0  0  0  0
  -18.3991   13.5308   26.5788 C   0  0  0  0  0  0  0  0  0  0  0  0
  -18.0876   12.7504   25.8766 H   0  0  0  0  0  0  0  0  0  0  0  0
  -17.6815   13.5464   27.4061 H   0  0  0  0  0  0  0  0  0  0  0  0
  -18.3468   14.4919   26.0569 H   0  0  0  0  0  0  0  0  0  0  0  0
  -20.5449   12.1371   26.9589 C   0  0  0  0  0  0  0  0  0  0  0  0
  -20.2925   11.2365   26.4620 H   0  0  0  0  0  0  0  0  0  0  0  0
  -22.9374   10.0028   29.5835 N   0  0  0  0  0  0  0  0  0  0  0  0
  -23.0090    9.6193   30.8200 C   0  0  0  0  0  0  0  0  0  0  0  0
  -22.8711    8.1585   31.1431 C   0  0  0  0  0  0  0  0  0  0  0  0
  -21.9248    7.7860   30.7379 H   0  0  0  0  0  0  0  0  0  0  0  0
  -23.6968    7.6085   30.6810 H   0  0  0  0  0  0  0  0  0  0  0  0
  -22.8874    7.9818   32.2214 H   0  0  0  0  0  0  0  0  0  0  0  0
  -23.2153   10.5628   31.8680 C   0  0  0  0  0  0  0  0  0  0  0  0
  -23.2658   10.2188   32.8689 H   0  0  0  0  0  0  0  0  0  0  0  0
  -23.3432   11.8902   31.5809 C   0  0  0  0  0  0  0  0  0  0  0  0
  -23.4971   12.6154   32.3357 H   0  0  0  0  0  0  0  0  0  0  0  0
  1  2  2  0
  2  3  1  0
  2 25  1  0
  3  4  1  0
  3 17  1  0
  4  5  1  0
  4  6  1  0
  4  7  1  0
  7  8  1  0
  7 15  2  0
  8  9  1  0
  9 10  2  0
 10 11  1  0
 10 15  1  0
 11 12  1  0
 11 13  1  0
 11 14  1  0
 15 16  1  0
 17 18  2  0
 18 19  1  0
 18 23  1  0
 19 20  1  0
 19 21  1  0
 19 22  1  0
 23 24  1  0
 23 25  2  0
 25 26  1  0
M  END
$$$$
