F535_65
     RDKit          3D

 23 24  0  0  0  0  0  0  0  0999 V2000
  -20.4204   12.0723   26.8564 N   0  0  0  0  0  0  0  0  0  0  0  0
  -19.9563   11.5357   27.6051 H   0  0  0  0  0  0  0  0  0  0  0  0
  -20.9112   11.3562   26.3023 H   0  0  0  0  0  0  0  0  0  0  0  0
  -21.4526   12.9543   27.4923 C   0  0  0  0  0  0  0  0  0  0  0  0
  -20.9141   13.7775   27.9708 H   0  0  0  0  0  0  0  0  0  0  0  0
  -22.0813   13.3397   26.6823 H   0  0  0  0  0  0  0  0  0  0  0  0
  -22.2605   12.2002   28.4775 C   0  0  0  0  0  0  0  0  0  0  0  0
  -23.0426   12.7406   29.4214 N   0  0  0  0  0  0  0  0  0  0  0  0
  -23.5922   11.7094   30.1030 C   0  0  0  0  0  0  0  0  0  0  0  0
  -23.1599   10.5833   29.5834 N   0  0  0  0  0  0  0  0  0  0  0  0
  -22.3266   10.9023   28.5606 N   0  0  0  0  0  0  0  0  0  0  0  0
  -24.4793   11.9941   31.1839 C   0  0  0  0  0  0  0  0  0  0  0  0
  -24.9091   11.1872   31.7199 H   0  0  0  0  0  0  0  0  0  0  0  0
  -24.7587   13.2902   31.5101 C   0  0  0  0  0  0  0  0  0  0  0  0
  -25.4158   13.5180   32.3116 H   0  0  0  0  0  0  0  0  0  0  0  0
  -24.1610   14.3543   30.7645 C   0  0  0  0  0  0  0  0  0  0  0  0
  -24.3908   15.3565   31.0306 H   0  0  0  0  0  0  0  0  0  0  0  0
  -23.3094   14.0864   29.7287 C   0  0  0  0  0  0  0  0  0  0  0  0
  -22.8263   14.8110   29.1273 H   0  0  0  0  0  0  0  0  0  0  0  0
  -19.4135   12.7713   26.0240 C   0  0  0  0  0  0  0  0  0  0  0  0
  -18.8765   13.4810   26.6566 H   0  0  0  0  0  0  0  0  0  0  0  0
  -19.9345   13.2796   25.2094 H   0  0  0  0  0  0  0  0  0  0  0  0
  -18.7310   12.0150   25.6293 H   0  0  0  0  0  0  0  0  0  0  0  0
  1  2  1  0
  1  3  1  0
  1  4  1  0
  1 20  1  0
  4  5  1  0
  4  6  1  0
  4  7  1  0
  7  8  1  0
  7 11  2  0
  8  9  1  0
  8 18  1  0
  9 10  2  0
  9 12  1  0
 10 11  1  0
 12 13  1  0
 12 14  2  0
 14 15  1  0
 14 16  1  0
 16 17  1  0
 16 18  2  0
 18 19  1  0
 20 21  1  0
 20 22  1  0
 20 23  1  0
M  END
$$$$
