F529_56
     RDKit          3D

 23 23  0  0  0  0  0  0  0  0999 V2000
  -19.8374   12.5748   27.6660 S   0  0  0  0  0  0  0  0  0  0  0  0
  -18.8245   11.6540   28.1565 O   0  0  0  0  0  0  0  0  0  0  0  0
  -20.3623   13.6218   28.5217 O   0  0  0  0  0  0  0  0  0  0  0  0
  -21.2006   11.6065   27.0744 C   0  0  0  0  0  0  0  0  0  0  0  0
  -20.8334   10.8833   26.3433 H   0  0  0  0  0  0  0  0  0  0  0  0
  -21.9443   12.2679   26.6259 H   0  0  0  0  0  0  0  0  0  0  0  0
  -21.6387   11.0824   27.9258 H   0  0  0  0  0  0  0  0  0  0  0  0
  -19.2191   13.3446   26.1960 C   0  0  0  0  0  0  0  0  0  0  0  0
  -18.9332   14.7187   26.1180 C   0  0  0  0  0  0  0  0  0  0  0  0
  -19.1525   15.5320   27.2270 N   0  0  0  0  0  0  0  0  0  0  0  0
  -19.6462   15.1080   28.0257 H   0  0  0  0  0  0  0  0  0  0  0  0
  -18.7755   16.9204   27.3378 C   0  0  0  0  0  0  0  0  0  0  0  0
  -17.6963   17.0491   27.2025 H   0  0  0  0  0  0  0  0  0  0  0  0
  -19.0321   17.2897   28.3357 H   0  0  0  0  0  0  0  0  0  0  0  0
  -19.3116   17.5352   26.6083 H   0  0  0  0  0  0  0  0  0  0  0  0
  -18.4038   15.2614   24.9395 C   0  0  0  0  0  0  0  0  0  0  0  0
  -18.1589   16.2885   24.8823 H   0  0  0  0  0  0  0  0  0  0  0  0
  -18.1957   14.4500   23.8322 C   0  0  0  0  0  0  0  0  0  0  0  0
  -17.8033   14.8632   22.9384 H   0  0  0  0  0  0  0  0  0  0  0  0
  -18.5042   13.0949   23.8910 C   0  0  0  0  0  0  0  0  0  0  0  0
  -18.3516   12.4784   23.0410 H   0  0  0  0  0  0  0  0  0  0  0  0
  -19.0092   12.5487   25.0671 C   0  0  0  0  0  0  0  0  0  0  0  0
  -19.2374   11.5137   25.1068 H   0  0  0  0  0  0  0  0  0  0  0  0
  1  2  2  0
  1  3  2  0
  1  4  1  0
  1  8  1  0
  4  5  1  0
  4  6  1  0
  4  7  1  0
  8  9  1  0
  8 22  2  0
  9 10  1  0
  9 16  2  0
 10 11  1  0
 10 12  1  0
 12 13  1  0
 12 14  1  0
 12 15  1  0
 16 17  1  0
 16 18  1  0
 18 19  1  0
 18 20  2  0
 20 21  1  0
 20 22  1  0
 22 23  1  0
M  END
$$$$
