F368_75
     RDKit          3D

 29 30  0  0  0  0  0  0  0  0999 V2000
  -19.3996   12.2583   28.7668 O   0  0  0  0  0  0  0  0  0  0  0  0
  -19.7047   12.8729   27.7620 C   0  0  0  0  0  0  0  0  0  0  0  0
  -21.0065   13.2110   27.5108 N   0  0  0  0  0  0  0  0  0  0  0  0
  -21.1655   13.7178   26.6323 H   0  0  0  0  0  0  0  0  0  0  0  0
  -22.1221   12.9468   28.2947 C   0  0  0  0  0  0  0  0  0  0  0  0
  -22.1623   12.3047   29.4806 C   0  0  0  0  0  0  0  0  0  0  0  0
  -21.4040   11.8705   30.0753 H   0  0  0  0  0  0  0  0  0  0  0  0
  -23.4725   12.3042   29.8314 N   0  0  0  0  0  0  0  0  0  0  0  0
  -24.0686   11.7352   31.0205 C   0  0  0  0  0  0  0  0  0  0  0  0
  -24.2218   10.6658   30.8354 H   0  0  0  0  0  0  0  0  0  0  0  0
  -23.3450   11.8335   31.8369 H   0  0  0  0  0  0  0  0  0  0  0  0
  -25.3765   12.4127   31.3875 C   0  0  0  0  0  0  0  0  0  0  0  0
  -25.7959   11.9643   32.2932 H   0  0  0  0  0  0  0  0  0  0  0  0
  -25.2274   13.4815   31.5716 H   0  0  0  0  0  0  0  0  0  0  0  0
  -26.1131   12.3115   30.5836 H   0  0  0  0  0  0  0  0  0  0  0  0
  -24.2550   12.9308   28.9034 N   0  0  0  0  0  0  0  0  0  0  0  0
  -23.4233   13.3172   27.9711 C   0  0  0  0  0  0  0  0  0  0  0  0
  -23.7240   13.8384   27.0995 H   0  0  0  0  0  0  0  0  0  0  0  0
  -18.7024   13.3362   26.6633 C   0  0  0  0  0  0  0  0  0  0  0  0
  -17.6695   13.0243   26.8814 H   0  0  0  0  0  0  0  0  0  0  0  0
  -19.0707   13.0166   25.1882 C   0  0  0  0  0  0  0  0  0  0  0  0
  -20.1464   12.9429   24.9946 H   0  0  0  0  0  0  0  0  0  0  0  0
  -18.5725   12.1443   24.7554 H   0  0  0  0  0  0  0  0  0  0  0  0
  -18.4643   14.3799   24.8070 C   0  0  0  0  0  0  0  0  0  0  0  0
  -18.9884   14.9316   24.0229 H   0  0  0  0  0  0  0  0  0  0  0  0
  -17.3971   14.3338   24.5615 H   0  0  0  0  0  0  0  0  0  0  0  0
  -18.7472   14.8340   26.2515 C   0  0  0  0  0  0  0  0  0  0  0  0
  -19.7266   15.3102   26.3797 H   0  0  0  0  0  0  0  0  0  0  0  0
  -17.9820   15.4715   26.7015 H   0  0  0  0  0  0  0  0  0  0  0  0
  1  2  2  0
  2  3  1  0
  2 19  1  0
  3  4  1  0
  3  5  1  0
  5  6  2  0
  5 17  1  0
  6  7  1  0
  6  8  1  0
  8  9  1  0
  8 16  1  0
  9 10  1  0
  9 11  1  0
  9 12  1  0
 12 13  1  0
 12 14  1  0
 12 15  1  0
 16 17  2  0
 17 18  1  0
 19 20  1  0
 19 21  1  0
 19 27  1  0
 21 22  1  0
 21 23  1  0
 21 24  1  0
 24 25  1  0
 24 26  1  0
 24 27  1  0
 27 28  1  0
 27 29  1  0
M  END
$$$$
