F666_12
     RDKit          3D

 35 37  0  0  0  0  0  0  0  0999 V2000
  -19.9777   11.0935   24.9749 F   0  0  0  0  0  0  0  0  0  0  0  0
  -19.4580   12.2997   25.2434 C   0  0  0  0  0  0  0  0  0  0  0  0
  -18.7467   12.9606   24.2497 C   0  0  0  0  0  0  0  0  0  0  0  0
  -18.6223   12.5124   23.2985 H   0  0  0  0  0  0  0  0  0  0  0  0
  -18.2054   14.2123   24.5273 C   0  0  0  0  0  0  0  0  0  0  0  0
  -17.6650   14.7169   23.7750 H   0  0  0  0  0  0  0  0  0  0  0  0
  -18.3738   14.7837   25.8014 C   0  0  0  0  0  0  0  0  0  0  0  0
  -17.8208   16.0250   26.0898 N   0  0  0  0  0  0  0  0  0  0  0  0
  -16.3776   16.2227   26.2921 C   0  0  0  0  0  0  0  0  0  0  0  0
  -15.8074   15.2884   26.2817 H   0  0  0  0  0  0  0  0  0  0  0  0
  -15.9986   16.8249   25.4570 H   0  0  0  0  0  0  0  0  0  0  0  0
  -16.1199   16.9701   27.6102 C   0  0  0  0  0  0  0  0  0  0  0  0
  -15.0527   17.1803   27.7119 H   0  0  0  0  0  0  0  0  0  0  0  0
  -16.4133   16.3431   28.4602 H   0  0  0  0  0  0  0  0  0  0  0  0
  -16.9238   18.1974   27.6878 N   0  0  0  0  0  0  0  0  0  0  0  0
  -16.4191   19.4538   27.9268 C   0  0  0  0  0  0  0  0  0  0  0  0
  -17.1901   20.3943   27.9801 O   0  0  0  0  0  0  0  0  0  0  0  0
  -14.9620   19.6322   28.1171 C   0  0  0  0  0  0  0  0  0  0  0  0
  -14.6272   19.4714   29.1373 H   0  0  0  0  0  0  0  0  0  0  0  0
  -14.2255   20.7139   27.3588 C   0  0  0  0  0  0  0  0  0  0  0  0
  -14.7874   21.3286   26.6644 H   0  0  0  0  0  0  0  0  0  0  0  0
  -13.4309   21.2404   27.8731 H   0  0  0  0  0  0  0  0  0  0  0  0
  -14.0046   19.2752   27.0039 C   0  0  0  0  0  0  0  0  0  0  0  0
  -14.4112   18.9232   26.0620 H   0  0  0  0  0  0  0  0  0  0  0  0
  -13.0572   18.8251   27.2751 H   0  0  0  0  0  0  0  0  0  0  0  0
  -18.3630   17.9834   27.4897 C   0  0  0  0  0  0  0  0  0  0  0  0
  -18.7134   17.3879   28.3406 H   0  0  0  0  0  0  0  0  0  0  0  0
  -18.9154   18.9283   27.5015 H   0  0  0  0  0  0  0  0  0  0  0  0
  -18.6500   17.2381   26.1745 C   0  0  0  0  0  0  0  0  0  0  0  0
  -18.4184   17.8842   25.3197 H   0  0  0  0  0  0  0  0  0  0  0  0
  -19.7224   17.0156   26.1448 H   0  0  0  0  0  0  0  0  0  0  0  0
  -19.1160   14.1024   26.7800 C   0  0  0  0  0  0  0  0  0  0  0  0
  -19.2857   14.5478   27.7243 H   0  0  0  0  0  0  0  0  0  0  0  0
  -19.6544   12.8495   26.5025 C   0  0  0  0  0  0  0  0  0  0  0  0
  -20.2130   12.3236   27.2314 H   0  0  0  0  0  0  0  0  0  0  0  0
  1  2  1  0
  2  3  1  0
  2 34  2  0
  3  4  1  0
  3  5  2  0
  5  6  1  0
  5  7  1  0
  7  8  1  0
  7 32  2  0
  8  9  1  0
  8 29  1  0
  9 10  1  0
  9 11  1  0
  9 12  1  0
 12 13  1  0
 12 14  1  0
 12 15  1  0
 15 16  1  0
 15 26  1  0
 16 17  2  0
 16 18  1  0
 18 19  1  0
 18 20  1  0
 18 23  1  0
 20 21  1  0
 20 22  1  0
 20 23  1  0
 23 24  1  0
 23 25  1  0
 26 27  1  0
 26 28  1  0
 26 29  1  0
 29 30  1  0
 29 31  1  0
 32 33  1  0
 32 34  1  0
 34 35  1  0
M  END
$$$$
