F5_82
     RDKit          3D

 21 21  0  0  0  0  0  0  0  0999 V2000
  -20.6466   12.0775   27.4324 Br  0  0  0  0  0  0  0  0  0  0  0  0
  -22.3502   12.6696   28.0050 C   0  0  0  0  0  0  0  0  0  0  0  0
  -22.6630   12.6879   29.3599 C   0  0  0  0  0  0  0  0  0  0  0  0
  -21.9583   12.3710   30.0807 H   0  0  0  0  0  0  0  0  0  0  0  0
  -23.9207   13.1224   29.7675 C   0  0  0  0  0  0  0  0  0  0  0  0
  -24.1859   13.1009   31.1120 O   0  0  0  0  0  0  0  0  0  0  0  0
  -23.9395   14.3224   31.8496 C   0  0  0  0  0  0  0  0  0  0  0  0
  -24.0144   14.0976   32.9123 H   0  0  0  0  0  0  0  0  0  0  0  0
  -24.6874   15.0562   31.5527 H   0  0  0  0  0  0  0  0  0  0  0  0
  -22.9409   14.6865   31.6104 H   0  0  0  0  0  0  0  0  0  0  0  0
  -24.8780   13.5601   28.8418 C   0  0  0  0  0  0  0  0  0  0  0  0
  -26.2545   14.0812   29.2560 C   0  0  0  0  0  0  0  0  0  0  0  0
  -26.8599   14.2121   28.3726 H   0  0  0  0  0  0  0  0  0  0  0  0
  -26.1741   14.9873   29.8329 H   0  0  0  0  0  0  0  0  0  0  0  0
  -26.9333   13.0412   30.1187 C   0  0  0  0  0  0  0  0  0  0  0  0
  -26.6038   12.9892   31.3253 O   0  0  0  0  0  0  0  0  0  0  0  0
  -27.7434   12.2626   29.5681 O   0  0  0  0  0  0  0  0  0  0  0  0
  -24.5489   13.5276   27.4876 C   0  0  0  0  0  0  0  0  0  0  0  0
  -25.2691   13.8356   26.7700 H   0  0  0  0  0  0  0  0  0  0  0  0
  -23.2959   13.0862   27.0693 C   0  0  0  0  0  0  0  0  0  0  0  0
  -23.0645   13.0643   26.0365 H   0  0  0  0  0  0  0  0  0  0  0  0
  1  2  1  0
  2  3  1  0
  2 20  2  0
  3  4  1  0
  3  5  2  0
  5  6  1  0
  5 11  1  0
  6  7  1  0
  7  8  1  0
  7  9  1  0
  7 10  1  0
 11 12  1  0
 11 18  2  0
 12 13  1  0
 12 14  1  0
 12 15  1  0
 15 16  1  0
 15 17  2  0
 18 19  1  0
 18 20  1  0
 20 21  1  0
M  END
$$$$
