F11_56
     RDKit          3D

 16 17  0  0  0  0  0  0  0  0999 V2000
  -25.2978   13.9553   31.9526 Br  0  0  0  0  0  0  0  0  0  0  0  0
  -25.2244   14.1780   30.0718 C   0  0  0  0  0  0  0  0  0  0  0  0
  -24.1879   13.6358   29.2638 C   0  0  0  0  0  0  0  0  0  0  0  0
  -24.2513   13.8754   27.8698 C   0  0  0  0  0  0  0  0  0  0  0  0
  -25.2655   14.5976   27.3121 N   0  0  0  0  0  0  0  0  0  0  0  0
  -26.2072   15.0873   28.0662 C   0  0  0  0  0  0  0  0  0  0  0  0
  -26.9846   15.6450   27.6036 H   0  0  0  0  0  0  0  0  0  0  0  0
  -26.2207   14.8975   29.4612 C   0  0  0  0  0  0  0  0  0  0  0  0
  -27.0099   15.3166   30.0313 H   0  0  0  0  0  0  0  0  0  0  0  0
  -23.3005   13.3940   27.0179 N   0  0  0  0  0  0  0  0  0  0  0  0
  -22.3033   12.6947   27.4836 C   0  0  0  0  0  0  0  0  0  0  0  0
  -21.5780   12.3332   26.7966 H   0  0  0  0  0  0  0  0  0  0  0  0
  -22.1656   12.4105   28.8589 C   0  0  0  0  0  0  0  0  0  0  0  0
  -21.3370   11.8371   29.1871 H   0  0  0  0  0  0  0  0  0  0  0  0
  -23.0964   12.8729   29.7539 C   0  0  0  0  0  0  0  0  0  0  0  0
  -22.9951   12.6610   30.7869 H   0  0  0  0  0  0  0  0  0  0  0  0
  1  2  1  0
  2  3  1  0
  2  8  2  0
  3  4  1  0
  3 15  2  0
  4  5  1  0
  4 10  2  0
  5  6  2  0
  6  7  1  0
  6  8  1  0
  8  9  1  0
 10 11  1  0
 11 12  1  0
 11 13  2  0
 13 14  1  0
 13 15  1  0
 15 16  1  0
M  END
$$$$
