F579_53
     RDKit          3D

 29 31  0  0  0  0  0  0  0  0999 V2000
  -18.8827   13.0800   27.3173 O   0  0  0  0  0  0  0  0  0  0  0  0
  -19.5248   13.0983   26.2912 C   0  0  0  0  0  0  0  0  0  0  0  0
  -20.8740   12.9154   26.2864 N   0  0  0  0  0  0  0  0  0  0  0  0
  -21.3328   12.9241   25.3716 H   0  0  0  0  0  0  0  0  0  0  0  0
  -21.7396   12.7093   27.3350 C   0  0  0  0  0  0  0  0  0  0  0  0
  -21.1788   12.2484   28.9131 S   0  0  0  0  0  0  0  0  0  0  0  0
  -22.8257   12.2527   29.4412 C   0  0  0  0  0  0  0  0  0  0  0  0
  -23.6556   12.6028   28.3770 C   0  0  0  0  0  0  0  0  0  0  0  0
  -23.0159   12.8633   27.1715 N   0  0  0  0  0  0  0  0  0  0  0  0
  -25.0425   12.6679   28.5906 C   0  0  0  0  0  0  0  0  0  0  0  0
  -25.6775   12.9323   27.7862 H   0  0  0  0  0  0  0  0  0  0  0  0
  -25.5658   12.3859   29.8443 C   0  0  0  0  0  0  0  0  0  0  0  0
  -26.6115   12.4366   30.0012 H   0  0  0  0  0  0  0  0  0  0  0  0
  -24.7003   12.0349   30.9047 C   0  0  0  0  0  0  0  0  0  0  0  0
  -25.1008   11.7376   32.1835 O   0  0  0  0  0  0  0  0  0  0  0  0
  -24.9978   12.7706   33.1566 C   0  0  0  0  0  0  0  0  0  0  0  0
  -25.6366   13.6215   32.8975 H   0  0  0  0  0  0  0  0  0  0  0  0
  -25.3521   12.3680   34.1103 H   0  0  0  0  0  0  0  0  0  0  0  0
  -23.9571   13.0822   33.2933 H   0  0  0  0  0  0  0  0  0  0  0  0
  -23.3323   11.9652   30.7158 C   0  0  0  0  0  0  0  0  0  0  0  0
  -22.6861   11.7003   31.5115 H   0  0  0  0  0  0  0  0  0  0  0  0
  -18.9012   13.3381   24.9713 C   0  0  0  0  0  0  0  0  0  0  0  0
  -19.0821   12.5410   24.2553 H   0  0  0  0  0  0  0  0  0  0  0  0
  -17.5990   14.0939   24.8510 C   0  0  0  0  0  0  0  0  0  0  0  0
  -17.1317   14.4949   25.7435 H   0  0  0  0  0  0  0  0  0  0  0  0
  -16.8978   13.7758   24.0891 H   0  0  0  0  0  0  0  0  0  0  0  0
  -18.8780   14.7349   24.3994 C   0  0  0  0  0  0  0  0  0  0  0  0
  -19.0445   14.8478   23.3350 H   0  0  0  0  0  0  0  0  0  0  0  0
  -19.2822   15.5438   24.9990 H   0  0  0  0  0  0  0  0  0  0  0  0
  1  2  2  0
  2  3  1  0
  2 22  1  0
  3  4  1  0
  3  5  1  0
  5  6  1  0
  5  9  2  0
  6  7  1  0
  7  8  1  0
  7 20  2  0
  8  9  1  0
  8 10  2  0
 10 11  1  0
 10 12  1  0
 12 13  1  0
 12 14  2  0
 14 15  1  0
 14 20  1  0
 15 16  1  0
 16 17  1  0
 16 18  1  0
 16 19  1  0
 20 21  1  0
 22 23  1  0
 22 24  1  0
 22 27  1  0
 24 25  1  0
 24 26  1  0
 24 27  1  0
 27 28  1  0
 27 29  1  0
M  END
$$$$
