F421_25
     RDKit          3D

 19 19  0  0  0  0  0  0  0  0999 V2000
  -25.6258   14.8364   26.9069 O   0  0  0  0  0  0  0  0  0  0  0  0
  -24.9058   14.4235   27.8130 C   0  0  0  0  0  0  0  0  0  0  0  0
  -24.9287   15.1426   29.0066 N   0  0  0  0  0  0  0  0  0  0  0  0
  -25.5160   16.4751   29.0399 C   0  0  0  0  0  0  0  0  0  0  0  0
  -24.8173   17.1566   29.5359 H   0  0  0  0  0  0  0  0  0  0  0  0
  -26.4489   16.4308   29.6093 H   0  0  0  0  0  0  0  0  0  0  0  0
  -25.7267   16.8626   28.0402 H   0  0  0  0  0  0  0  0  0  0  0  0
  -24.4231   14.6467   30.2798 C   0  0  0  0  0  0  0  0  0  0  0  0
  -25.1205   14.9266   31.0761 H   0  0  0  0  0  0  0  0  0  0  0  0
  -23.4506   15.1084   30.4734 H   0  0  0  0  0  0  0  0  0  0  0  0
  -24.3300   13.5588   30.2837 H   0  0  0  0  0  0  0  0  0  0  0  0
  -24.0730   13.2439   27.6643 C   0  0  0  0  0  0  0  0  0  0  0  0
  -22.8187   13.1198   28.1831 C   0  0  0  0  0  0  0  0  0  0  0  0
  -22.2205   13.7978   28.7344 H   0  0  0  0  0  0  0  0  0  0  0  0
  -22.4067   11.8805   27.8674 N   0  0  0  0  0  0  0  0  0  0  0  0
  -21.4846   11.4778   28.1212 H   0  0  0  0  0  0  0  0  0  0  0  0
  -23.3491   11.1902   27.1692 N   0  0  0  0  0  0  0  0  0  0  0  0
  -24.3510   12.0157   27.0602 C   0  0  0  0  0  0  0  0  0  0  0  0
  -25.2591   11.7592   26.5738 H   0  0  0  0  0  0  0  0  0  0  0  0
  1  2  2  0
  2  3  1  0
  2 12  1  0
  3  4  1  0
  3  8  1  0
  4  5  1  0
  4  6  1  0
  4  7  1  0
  8  9  1  0
  8 10  1  0
  8 11  1  0
 12 13  2  0
 12 18  1  0
 13 14  1  0
 13 15  1  0
 15 16  1  0
 15 17  1  0
 17 18  2  0
 18 19  1  0
M  END
$$$$
