F558_9
     RDKit          3D

 32 33  0  0  0  0  0  0  0  0999 V2000
  -18.0332   16.0910   26.9505 O   0  0  0  0  0  0  0  0  0  0  0  0
  -17.5066   15.2617   26.2235 C   0  0  0  0  0  0  0  0  0  0  0  0
  -16.3425   15.4366   25.5443 O   0  0  0  0  0  0  0  0  0  0  0  0
  -15.6061   16.6012   25.9245 C   0  0  0  0  0  0  0  0  0  0  0  0
  -15.3379   16.5558   26.9841 H   0  0  0  0  0  0  0  0  0  0  0  0
  -16.1854   17.5053   25.7089 H   0  0  0  0  0  0  0  0  0  0  0  0
  -14.6872   16.6282   25.3332 H   0  0  0  0  0  0  0  0  0  0  0  0
  -18.0079   14.0278   25.9425 N   0  0  0  0  0  0  0  0  0  0  0  0
  -17.4556   13.5091   25.2534 H   0  0  0  0  0  0  0  0  0  0  0  0
  -19.1621   13.3935   26.4512 C   0  0  0  0  0  0  0  0  0  0  0  0
  -20.0955   14.0413   27.2638 C   0  0  0  0  0  0  0  0  0  0  0  0
  -19.9620   15.0538   27.5388 H   0  0  0  0  0  0  0  0  0  0  0  0
  -21.2063   13.3406   27.7212 C   0  0  0  0  0  0  0  0  0  0  0  0
  -21.9135   13.8327   28.3392 H   0  0  0  0  0  0  0  0  0  0  0  0
  -21.3927   11.9997   27.3791 C   0  0  0  0  0  0  0  0  0  0  0  0
  -22.5919   11.2383   27.8979 C   0  0  0  0  0  0  0  0  0  0  0  0
  -22.2802   10.5945   28.7311 H   0  0  0  0  0  0  0  0  0  0  0  0
  -22.9518   10.5404   27.1302 H   0  0  0  0  0  0  0  0  0  0  0  0
  -23.7250   12.1314   28.3357 C   0  0  0  0  0  0  0  0  0  0  0  0
  -24.0451   12.2865   29.6793 C   0  0  0  0  0  0  0  0  0  0  0  0
  -23.4847   11.7910   30.4279 H   0  0  0  0  0  0  0  0  0  0  0  0
  -25.1122   13.1001   30.0468 C   0  0  0  0  0  0  0  0  0  0  0  0
  -25.3637   13.2229   31.0703 H   0  0  0  0  0  0  0  0  0  0  0  0
  -25.8481   13.7443   29.1438 N   0  0  0  0  0  0  0  0  0  0  0  0
  -25.5619   13.6087   27.8502 C   0  0  0  0  0  0  0  0  0  0  0  0
  -26.1656   14.1296   27.1499 H   0  0  0  0  0  0  0  0  0  0  0  0
  -24.5098   12.8110   27.4120 C   0  0  0  0  0  0  0  0  0  0  0  0
  -24.3151   12.7215   26.3743 H   0  0  0  0  0  0  0  0  0  0  0  0
  -20.4453   11.3596   26.5761 C   0  0  0  0  0  0  0  0  0  0  0  0
  -20.5722   10.3411   26.3127 H   0  0  0  0  0  0  0  0  0  0  0  0
  -19.3309   12.0511   26.1132 C   0  0  0  0  0  0  0  0  0  0  0  0
  -18.6183   11.5619   25.5010 H   0  0  0  0  0  0  0  0  0  0  0  0
  1  2  2  0
  2  3  1  0
  2  8  1  0
  3  4  1  0
  4  5  1  0
  4  6  1  0
  4  7  1  0
  8  9  1  0
  8 10  1  0
 10 11  1  0
 10 31  2  0
 11 12  1  0
 11 13  2  0
 13 14  1  0
 13 15  1  0
 15 16  1  0
 15 29  2  0
 16 17  1  0
 16 18  1  0
 16 19  1  0
 19 20  1  0
 19 27  2  0
 20 21  1  0
 20 22  2  0
 22 23  1  0
 22 24  1  0
 24 25  2  0
 25 26  1  0
 25 27  1  0
 27 28  1  0
 29 30  1  0
 29 31  1  0
 31 32  1  0
M  END
$$$$
