F5_68
     RDKit          3D

 21 21  0  0  0  0  0  0  0  0999 V2000
  -24.7468   12.7534   26.6506 Br  0  0  0  0  0  0  0  0  0  0  0  0
  -24.6443   13.7608   28.2492 C   0  0  0  0  0  0  0  0  0  0  0  0
  -25.2954   14.9859   28.3442 C   0  0  0  0  0  0  0  0  0  0  0  0
  -25.8494   15.3673   27.5292 H   0  0  0  0  0  0  0  0  0  0  0  0
  -25.2092   15.7186   29.5243 C   0  0  0  0  0  0  0  0  0  0  0  0
  -25.8513   16.9290   29.5588 O   0  0  0  0  0  0  0  0  0  0  0  0
  -25.2360   18.0199   28.8320 C   0  0  0  0  0  0  0  0  0  0  0  0
  -25.7493   18.9407   29.1043 H   0  0  0  0  0  0  0  0  0  0  0  0
  -25.3360   17.8183   27.7664 H   0  0  0  0  0  0  0  0  0  0  0  0
  -24.1831   18.0797   29.1055 H   0  0  0  0  0  0  0  0  0  0  0  0
  -24.4925   15.2409   30.6302 C   0  0  0  0  0  0  0  0  0  0  0  0
  -24.4093   15.9997   31.9550 C   0  0  0  0  0  0  0  0  0  0  0  0
  -24.5606   15.3051   32.7666 H   0  0  0  0  0  0  0  0  0  0  0  0
  -25.1091   16.8182   31.9834 H   0  0  0  0  0  0  0  0  0  0  0  0
  -23.0184   16.5736   32.1050 C   0  0  0  0  0  0  0  0  0  0  0  0
  -22.3055   16.1223   33.0298 O   0  0  0  0  0  0  0  0  0  0  0  0
  -22.6805   17.4980   31.3325 O   0  0  0  0  0  0  0  0  0  0  0  0
  -23.8404   14.0145   30.5136 C   0  0  0  0  0  0  0  0  0  0  0  0
  -23.2749   13.6461   31.3341 H   0  0  0  0  0  0  0  0  0  0  0  0
  -23.9135   13.2779   29.3337 C   0  0  0  0  0  0  0  0  0  0  0  0
  -23.4086   12.3503   29.2613 H   0  0  0  0  0  0  0  0  0  0  0  0
  1  2  1  0
  2  3  1  0
  2 20  2  0
  3  4  1  0
  3  5  2  0
  5  6  1  0
  5 11  1  0
  6  7  1  0
  7  8  1  0
  7  9  1  0
  7 10  1  0
 11 12  1  0
 11 18  2  0
 12 13  1  0
 12 14  1  0
 12 15  1  0
 15 16  1  0
 15 17  2  0
 18 19  1  0
 18 20  1  0
 20 21  1  0
M  END
$$$$
