F740_7
     RDKit          3D

 26 28  0  0  0  0  0  0  0  0999 V2000
  -20.2262   12.2634   28.9536 O   0  0  0  0  0  0  0  0  0  0  0  0
  -21.1648   12.4134   28.1778 C   0  0  0  0  0  0  0  0  0  0  0  0
  -20.9524   12.1269   26.8527 N   0  0  0  0  0  0  0  0  0  0  0  0
  -21.7575   12.1394   26.2201 H   0  0  0  0  0  0  0  0  0  0  0  0
  -19.6748   11.7819   26.3139 C   0  0  0  0  0  0  0  0  0  0  0  0
  -19.5889   10.7241   26.0744 H   0  0  0  0  0  0  0  0  0  0  0  0
  -18.4231   12.4620   26.7982 C   0  0  0  0  0  0  0  0  0  0  0  0
  -18.5083   13.2514   27.5353 H   0  0  0  0  0  0  0  0  0  0  0  0
  -17.5272   11.8599   26.8935 H   0  0  0  0  0  0  0  0  0  0  0  0
  -18.9387   12.7390   25.4171 C   0  0  0  0  0  0  0  0  0  0  0  0
  -18.4008   12.3207   24.5751 H   0  0  0  0  0  0  0  0  0  0  0  0
  -19.3857   13.7064   25.2226 H   0  0  0  0  0  0  0  0  0  0  0  0
  -22.5126   12.8326   28.6202 C   0  0  0  0  0  0  0  0  0  0  0  0
  -23.3522   13.4654   27.6838 C   0  0  0  0  0  0  0  0  0  0  0  0
  -23.0238   13.6393   26.6920 H   0  0  0  0  0  0  0  0  0  0  0  0
  -24.6186   13.8597   28.0816 C   0  0  0  0  0  0  0  0  0  0  0  0
  -25.5427   14.4827   27.3048 O   0  0  0  0  0  0  0  0  0  0  0  0
  -26.6290   14.6348   28.2421 C   0  0  0  0  0  0  0  0  0  0  0  0
  -26.8575   15.7012   28.3439 H   0  0  0  0  0  0  0  0  0  0  0  0
  -27.5116   14.1222   27.8426 H   0  0  0  0  0  0  0  0  0  0  0  0
  -26.3364   14.0986   29.5496 O   0  0  0  0  0  0  0  0  0  0  0  0
  -25.0706   13.6405   29.3594 C   0  0  0  0  0  0  0  0  0  0  0  0
  -24.2776   13.0104   30.3079 C   0  0  0  0  0  0  0  0  0  0  0  0
  -24.6467   12.8425   31.2875 H   0  0  0  0  0  0  0  0  0  0  0  0
  -22.9968   12.6032   29.9322 C   0  0  0  0  0  0  0  0  0  0  0  0
  -22.3879   12.1038   30.6419 H   0  0  0  0  0  0  0  0  0  0  0  0
  1  2  2  0
  2  3  1  0
  2 13  1  0
  3  4  1  0
  3  5  1  0
  5  6  1  0
  5  7  1  0
  5 10  1  0
  7  8  1  0
  7  9  1  0
  7 10  1  0
 10 11  1  0
 10 12  1  0
 13 14  1  0
 13 25  2  0
 14 15  1  0
 14 16  2  0
 16 17  1  0
 16 22  1  0
 17 18  1  0
 18 19  1  0
 18 20  1  0
 18 21  1  0
 21 22  1  0
 22 23  2  0
 23 24  1  0
 23 25  1  0
 25 26  1  0
M  END
$$$$
