F529_93
     RDKit          3D

 23 23  0  0  0  0  0  0  0  0999 V2000
  -18.1564   13.2680   23.8331 S   0  0  0  0  0  0  0  0  0  0  0  0
  -18.8723   12.3588   22.9525 O   0  0  0  0  0  0  0  0  0  0  0  0
  -17.7600   14.5852   23.3729 O   0  0  0  0  0  0  0  0  0  0  0  0
  -16.7081   12.4238   24.4125 C   0  0  0  0  0  0  0  0  0  0  0  0
  -17.0052   11.4744   24.8628 H   0  0  0  0  0  0  0  0  0  0  0  0
  -16.1912   13.0530   25.1395 H   0  0  0  0  0  0  0  0  0  0  0  0
  -16.0577   12.2396   23.5554 H   0  0  0  0  0  0  0  0  0  0  0  0
  -19.1168   13.4821   25.3054 C   0  0  0  0  0  0  0  0  0  0  0  0
  -19.0497   14.6417   26.0971 C   0  0  0  0  0  0  0  0  0  0  0  0
  -18.1865   15.6732   25.7361 N   0  0  0  0  0  0  0  0  0  0  0  0
  -17.7131   15.5875   24.8250 H   0  0  0  0  0  0  0  0  0  0  0  0
  -17.8777   16.8302   26.5410 C   0  0  0  0  0  0  0  0  0  0  0  0
  -18.7830   17.3982   26.7806 H   0  0  0  0  0  0  0  0  0  0  0  0
  -17.2065   17.4927   25.9855 H   0  0  0  0  0  0  0  0  0  0  0  0
  -17.3698   16.5437   27.4670 H   0  0  0  0  0  0  0  0  0  0  0  0
  -19.8678   14.7703   27.2273 C   0  0  0  0  0  0  0  0  0  0  0  0
  -19.8444   15.6514   27.8116 H   0  0  0  0  0  0  0  0  0  0  0  0
  -20.7201   13.7362   27.5905 C   0  0  0  0  0  0  0  0  0  0  0  0
  -21.3323   13.8310   28.4506 H   0  0  0  0  0  0  0  0  0  0  0  0
  -20.7708   12.5727   26.8298 C   0  0  0  0  0  0  0  0  0  0  0  0
  -21.4172   11.7806   27.1137 H   0  0  0  0  0  0  0  0  0  0  0  0
  -19.9758   12.4510   25.6941 C   0  0  0  0  0  0  0  0  0  0  0  0
  -20.0232   11.5633   25.1157 H   0  0  0  0  0  0  0  0  0  0  0  0
  1  2  2  0
  1  3  2  0
  1  4  1  0
  1  8  1  0
  4  5  1  0
  4  6  1  0
  4  7  1  0
  8  9  1  0
  8 22  2  0
  9 10  1  0
  9 16  2  0
 10 11  1  0
 10 12  1  0
 12 13  1  0
 12 14  1  0
 12 15  1  0
 16 17  1  0
 16 18  1  0
 18 19  1  0
 18 20  2  0
 20 21  1  0
 20 22  1  0
 22 23  1  0
M  END
$$$$
