F366_61
     RDKit          3D

 22 22  0  0  0  0  0  0  0  0999 V2000
  -24.8887   14.8742   29.0358 O   0  0  0  0  0  0  0  0  0  0  0  0
  -25.3588   14.5137   29.8076 H   0  0  0  0  0  0  0  0  0  0  0  0
  -25.2817   14.0964   27.9085 C   0  0  0  0  0  0  0  0  0  0  0  0
  -26.3654   14.1870   27.7768 H   0  0  0  0  0  0  0  0  0  0  0  0
  -24.7824   14.5145   27.0286 H   0  0  0  0  0  0  0  0  0  0  0  0
  -24.8575   12.6418   28.1012 C   0  0  0  0  0  0  0  0  0  0  0  0
  -25.4096   12.2223   28.9511 H   0  0  0  0  0  0  0  0  0  0  0  0
  -25.1250   12.0526   27.2145 H   0  0  0  0  0  0  0  0  0  0  0  0
  -23.3901   12.4924   28.3539 C   0  0  0  0  0  0  0  0  0  0  0  0
  -22.3775   12.9086   27.5606 C   0  0  0  0  0  0  0  0  0  0  0  0
  -22.3752   13.4042   26.6255 H   0  0  0  0  0  0  0  0  0  0  0  0
  -21.2384   12.5616   28.1989 N   0  0  0  0  0  0  0  0  0  0  0  0
  -19.8746   12.7866   27.7714 C   0  0  0  0  0  0  0  0  0  0  0  0
  -19.7270   13.8681   27.6812 H   0  0  0  0  0  0  0  0  0  0  0  0
  -19.2129   12.4213   28.5641 H   0  0  0  0  0  0  0  0  0  0  0  0
  -19.5673   12.0996   26.4527 C   0  0  0  0  0  0  0  0  0  0  0  0
  -20.2256   12.4638   25.6554 H   0  0  0  0  0  0  0  0  0  0  0  0
  -19.7048   11.0158   26.5288 H   0  0  0  0  0  0  0  0  0  0  0  0
  -18.5319   12.2931   26.1557 H   0  0  0  0  0  0  0  0  0  0  0  0
  -21.4903   11.9325   29.3738 N   0  0  0  0  0  0  0  0  0  0  0  0
  -22.7924   11.8970   29.4613 C   0  0  0  0  0  0  0  0  0  0  0  0
  -23.3130   11.4612   30.2786 H   0  0  0  0  0  0  0  0  0  0  0  0
  1  2  1  0
  1  3  1  0
  3  4  1  0
  3  5  1  0
  3  6  1  0
  6  7  1  0
  6  8  1  0
  6  9  1  0
  9 10  2  0
  9 21  1  0
 10 11  1  0
 10 12  1  0
 12 13  1  0
 12 20  1  0
 13 14  1  0
 13 15  1  0
 13 16  1  0
 16 17  1  0
 16 18  1  0
 16 19  1  0
 20 21  2  0
 21 22  1  0
M  END
$$$$
