F275_42
     RDKit          3D

 20 20  0  0  0  0  0  0  0  0999 V2000
  -26.1736   14.2207   28.2323 S   0  0  0  0  0  0  0  0  0  0  0  0
  -27.0037   13.2506   28.9086 O   0  0  0  0  0  0  0  0  0  0  0  0
  -26.7270   15.2200   27.3443 O   0  0  0  0  0  0  0  0  0  0  0  0
  -25.0215   13.3593   27.3525 N   0  0  0  0  0  0  0  0  0  0  0  0
  -24.3762   13.9750   26.8527 H   0  0  0  0  0  0  0  0  0  0  0  0
  -24.5578   12.6426   27.9168 H   0  0  0  0  0  0  0  0  0  0  0  0
  -25.1686   15.0318   29.4287 C   0  0  0  0  0  0  0  0  0  0  0  0
  -24.7653   14.3594   30.5862 C   0  0  0  0  0  0  0  0  0  0  0  0
  -25.0770   13.3637   30.7692 H   0  0  0  0  0  0  0  0  0  0  0  0
  -23.9445   15.0134   31.4925 C   0  0  0  0  0  0  0  0  0  0  0  0
  -23.5639   14.3646   32.6027 F   0  0  0  0  0  0  0  0  0  0  0  0
  -23.4978   16.3107   31.2910 C   0  0  0  0  0  0  0  0  0  0  0  0
  -22.8686   16.7724   32.0079 H   0  0  0  0  0  0  0  0  0  0  0  0
  -23.8857   16.9843   30.1351 C   0  0  0  0  0  0  0  0  0  0  0  0
  -23.3822   18.3714   29.8615 C   0  0  0  0  0  0  0  0  0  0  0  0
  -23.2029   18.9146   30.7953 H   0  0  0  0  0  0  0  0  0  0  0  0
  -24.1159   18.9466   29.2875 H   0  0  0  0  0  0  0  0  0  0  0  0
  -22.4479   18.3250   29.2943 H   0  0  0  0  0  0  0  0  0  0  0  0
  -24.7117   16.3389   29.2102 C   0  0  0  0  0  0  0  0  0  0  0  0
  -24.9984   16.8413   28.3196 H   0  0  0  0  0  0  0  0  0  0  0  0
  1  2  2  0
  1  3  2  0
  1  4  1  0
  1  7  1  0
  4  5  1  0
  4  6  1  0
  7  8  1  0
  7 19  2  0
  8  9  1  0
  8 10  2  0
 10 11  1  0
 10 12  1  0
 12 13  1  0
 12 14  2  0
 14 15  1  0
 14 19  1  0
 15 16  1  0
 15 17  1  0
 15 18  1  0
 19 20  1  0
M  END
$$$$
