F763_4
     RDKit          3D

 19 19  0  0  0  0  0  0  0  0999 V2000
  -27.0095   15.4656   29.4893 Br  0  0  0  0  0  0  0  0  0  0  0  0
  -25.6179   14.3114   29.0110 C   0  0  0  0  0  0  0  0  0  0  0  0
  -25.5343   13.7983   27.7527 C   0  0  0  0  0  0  0  0  0  0  0  0
  -26.2498   14.0337   27.0115 H   0  0  0  0  0  0  0  0  0  0  0  0
  -24.4718   12.9157   27.3917 C   0  0  0  0  0  0  0  0  0  0  0  0
  -24.3496   12.4000   26.2731 O   0  0  0  0  0  0  0  0  0  0  0  0
  -23.5178   12.6105   28.3676 N   0  0  0  0  0  0  0  0  0  0  0  0
  -22.4062   11.7156   28.0411 C   0  0  0  0  0  0  0  0  0  0  0  0
  -22.0824   11.1925   28.9493 H   0  0  0  0  0  0  0  0  0  0  0  0
  -22.7471   10.9291   27.3552 H   0  0  0  0  0  0  0  0  0  0  0  0
  -21.2185   12.4652   27.4401 C   0  0  0  0  0  0  0  0  0  0  0  0
  -20.7231   13.1004   28.1816 H   0  0  0  0  0  0  0  0  0  0  0  0
  -21.5491   13.1107   26.6195 H   0  0  0  0  0  0  0  0  0  0  0  0
  -20.2652   11.5464   26.9192 O   0  0  0  0  0  0  0  0  0  0  0  0
  -20.7031   11.0460   26.2075 H   0  0  0  0  0  0  0  0  0  0  0  0
  -23.6074   13.1308   29.6540 C   0  0  0  0  0  0  0  0  0  0  0  0
  -22.8419   12.8351   30.3291 H   0  0  0  0  0  0  0  0  0  0  0  0
  -24.6338   13.9677   29.9800 C   0  0  0  0  0  0  0  0  0  0  0  0
  -24.7101   14.3701   30.9576 H   0  0  0  0  0  0  0  0  0  0  0  0
  1  2  1  0
  2  3  2  0
  2 18  1  0
  3  4  1  0
  3  5  1  0
  5  6  2  0
  5  7  1  0
  7  8  1  0
  7 16  1  0
  8  9  1  0
  8 10  1  0
  8 11  1  0
 11 12  1  0
 11 13  1  0
 11 14  1  0
 14 15  1  0
 16 17  1  0
 16 18  2  0
 18 19  1  0
M  END
$$$$
