F535_90
     RDKit          3D

 23 24  0  0  0  0  0  0  0  0999 V2000
  -24.4781   13.5259   27.3970 N   0  0  0  0  0  0  0  0  0  0  0  0
  -24.9458   13.1561   26.5554 H   0  0  0  0  0  0  0  0  0  0  0  0
  -24.3781   14.5330   27.2059 H   0  0  0  0  0  0  0  0  0  0  0  0
  -25.4165   13.3649   28.5551 C   0  0  0  0  0  0  0  0  0  0  0  0
  -26.3693   13.8106   28.2548 H   0  0  0  0  0  0  0  0  0  0  0  0
  -25.5410   12.2883   28.7137 H   0  0  0  0  0  0  0  0  0  0  0  0
  -24.8788   14.0209   29.7687 C   0  0  0  0  0  0  0  0  0  0  0  0
  -24.1338   13.4274   30.7105 N   0  0  0  0  0  0  0  0  0  0  0  0
  -23.8605   14.3734   31.6382 C   0  0  0  0  0  0  0  0  0  0  0  0
  -24.4182   15.5024   31.2651 N   0  0  0  0  0  0  0  0  0  0  0  0
  -25.0526   15.2715   30.0876 N   0  0  0  0  0  0  0  0  0  0  0  0
  -23.0743   14.0160   32.7743 C   0  0  0  0  0  0  0  0  0  0  0  0
  -22.8611   14.7556   33.5027 H   0  0  0  0  0  0  0  0  0  0  0  0
  -22.6128   12.7377   32.9062 C   0  0  0  0  0  0  0  0  0  0  0  0
  -22.0276   12.4565   33.7455 H   0  0  0  0  0  0  0  0  0  0  0  0
  -22.9195   11.7654   31.9032 C   0  0  0  0  0  0  0  0  0  0  0  0
  -22.5509   10.7763   32.0207 H   0  0  0  0  0  0  0  0  0  0  0  0
  -23.6735   12.1029   30.8135 C   0  0  0  0  0  0  0  0  0  0  0  0
  -23.9454   11.4479   30.0277 H   0  0  0  0  0  0  0  0  0  0  0  0
  -23.1476   12.8960   27.5653 C   0  0  0  0  0  0  0  0  0  0  0  0
  -23.2903   11.8231   27.7098 H   0  0  0  0  0  0  0  0  0  0  0  0
  -22.6586   13.3521   28.4292 H   0  0  0  0  0  0  0  0  0  0  0  0
  -22.5751   13.0887   26.6550 H   0  0  0  0  0  0  0  0  0  0  0  0
  1  2  1  0
  1  3  1  0
  1  4  1  0
  1 20  1  0
  4  5  1  0
  4  6  1  0
  4  7  1  0
  7  8  1  0
  7 11  2  0
  8  9  1  0
  8 18  1  0
  9 10  2  0
  9 12  1  0
 10 11  1  0
 12 13  1  0
 12 14  2  0
 14 15  1  0
 14 16  1  0
 16 17  1  0
 16 18  2  0
 18 19  1  0
 20 21  1  0
 20 22  1  0
 20 23  1  0
M  END
$$$$
