F362_66
     RDKit          3D

 30 31  0  0  0  0  0  0  0  0999 V2000
  -24.8467   14.8777   30.1740 N   0  0  0  0  0  0  0  0  0  0  0  0
  -24.4775   16.3025   30.2786 C   0  0  0  0  0  0  0  0  0  0  0  0
  -23.8767   16.6281   29.4249 H   0  0  0  0  0  0  0  0  0  0  0  0
  -25.3799   16.9245   30.2231 H   0  0  0  0  0  0  0  0  0  0  0  0
  -23.7836   16.5889   31.6019 C   0  0  0  0  0  0  0  0  0  0  0  0
  -22.8927   15.9712   31.7432 H   0  0  0  0  0  0  0  0  0  0  0  0
  -24.4541   16.3920   32.4456 H   0  0  0  0  0  0  0  0  0  0  0  0
  -23.4815   17.6401   31.6514 H   0  0  0  0  0  0  0  0  0  0  0  0
  -26.3063   14.6536   30.1884 C   0  0  0  0  0  0  0  0  0  0  0  0
  -26.7584   15.0578   31.1006 H   0  0  0  0  0  0  0  0  0  0  0  0
  -26.7834   15.2028   29.3665 H   0  0  0  0  0  0  0  0  0  0  0  0
  -26.6289   13.1731   30.0419 C   0  0  0  0  0  0  0  0  0  0  0  0
  -26.2075   12.5859   30.8633 H   0  0  0  0  0  0  0  0  0  0  0  0
  -26.2253   12.7729   29.1065 H   0  0  0  0  0  0  0  0  0  0  0  0
  -27.7127   13.0215   30.0373 H   0  0  0  0  0  0  0  0  0  0  0  0
  -23.8949   13.8020   30.0683 C   0  0  0  0  0  0  0  0  0  0  0  0
  -23.5781   12.9481   31.1868 N   0  0  0  0  0  0  0  0  0  0  0  0
  -24.0546   12.9597   32.4511 N   0  0  0  0  0  0  0  0  0  0  0  0
  -23.4164   11.9724   32.9997 C   0  0  0  0  0  0  0  0  0  0  0  0
  -23.5622   11.7033   34.0172 H   0  0  0  0  0  0  0  0  0  0  0  0
  -22.5638   11.3139   32.2076 N   0  0  0  0  0  0  0  0  0  0  0  0
  -22.6669   11.9283   31.0646 C   0  0  0  0  0  0  0  0  0  0  0  0
  -21.9979   11.6533   29.8840 N   0  0  0  0  0  0  0  0  0  0  0  0
  -22.2497   12.3928   28.8535 C   0  0  0  0  0  0  0  0  0  0  0  0
  -21.5367   12.1143   27.5589 C   0  0  0  0  0  0  0  0  0  0  0  0
  -21.8360   12.8159   26.7769 H   0  0  0  0  0  0  0  0  0  0  0  0
  -21.7691   11.0972   27.2306 H   0  0  0  0  0  0  0  0  0  0  0  0
  -20.4572   12.1994   27.7165 H   0  0  0  0  0  0  0  0  0  0  0  0
  -23.2231   13.5157   28.8942 C   0  0  0  0  0  0  0  0  0  0  0  0
  -23.3861   14.0954   28.0293 H   0  0  0  0  0  0  0  0  0  0  0  0
  1  2  1  0
  1  9  1  0
  1 16  1  0
  2  3  1  0
  2  4  1  0
  2  5  1  0
  5  6  1  0
  5  7  1  0
  5  8  1  0
  9 10  1  0
  9 11  1  0
  9 12  1  0
 12 13  1  0
 12 14  1  0
 12 15  1  0
 16 17  1  0
 16 29  2  0
 17 18  1  0
 17 22  1  0
 18 19  2  0
 19 20  1  0
 19 21  1  0
 21 22  2  0
 22 23  1  0
 23 24  2  0
 24 25  1  0
 24 29  1  0
 25 26  1  0
 25 27  1  0
 25 28  1  0
 29 30  1  0
M  END
$$$$
