F710_82
     RDKit          3D

 30 31  0  0  0  0  0  0  0  0999 V2000
  -25.3389   12.7483   29.7424 F   0  0  0  0  0  0  0  0  0  0  0  0
  -24.1588   12.7259   29.1063 C   0  0  0  0  0  0  0  0  0  0  0  0
  -24.1167   13.0577   27.7574 C   0  0  0  0  0  0  0  0  0  0  0  0
  -25.0056   13.3194   27.2453 H   0  0  0  0  0  0  0  0  0  0  0  0
  -22.8921   13.0331   27.0977 C   0  0  0  0  0  0  0  0  0  0  0  0
  -22.8353   13.2624   26.0667 H   0  0  0  0  0  0  0  0  0  0  0  0
  -21.7284   12.6826   27.7961 C   0  0  0  0  0  0  0  0  0  0  0  0
  -20.5056   12.6562   27.1379 N   0  0  0  0  0  0  0  0  0  0  0  0
  -19.9851   11.4363   26.5059 C   0  0  0  0  0  0  0  0  0  0  0  0
  -19.1016   11.0977   27.0606 H   0  0  0  0  0  0  0  0  0  0  0  0
  -20.7137   10.6180   26.5087 H   0  0  0  0  0  0  0  0  0  0  0  0
  -19.6116   11.7307   25.0446 C   0  0  0  0  0  0  0  0  0  0  0  0
  -20.5166   11.9560   24.4675 H   0  0  0  0  0  0  0  0  0  0  0  0
  -19.1548   10.8428   24.5954 H   0  0  0  0  0  0  0  0  0  0  0  0
  -18.7367   12.9041   24.9238 N   0  0  0  0  0  0  0  0  0  0  0  0
  -17.5483   12.7774   24.2578 C   0  0  0  0  0  0  0  0  0  0  0  0
  -17.0768   11.7102   23.9033 O   0  0  0  0  0  0  0  0  0  0  0  0
  -16.8996   13.9119   23.9836 N   0  0  0  0  0  0  0  0  0  0  0  0
  -16.0340   13.7861   23.4482 H   0  0  0  0  0  0  0  0  0  0  0  0
  -17.4836   14.7280   23.7890 H   0  0  0  0  0  0  0  0  0  0  0  0
  -19.2616   14.1148   25.5805 C   0  0  0  0  0  0  0  0  0  0  0  0
  -18.5390   14.9332   25.5605 H   0  0  0  0  0  0  0  0  0  0  0  0
  -20.1466   14.4265   25.0144 H   0  0  0  0  0  0  0  0  0  0  0  0
  -19.6342   13.8352   27.0461 C   0  0  0  0  0  0  0  0  0  0  0  0
  -20.0736   14.7329   27.4939 H   0  0  0  0  0  0  0  0  0  0  0  0
  -18.7200   13.6249   27.6158 H   0  0  0  0  0  0  0  0  0  0  0  0
  -21.7934   12.3463   29.1584 C   0  0  0  0  0  0  0  0  0  0  0  0
  -20.9195   12.0880   29.6930 H   0  0  0  0  0  0  0  0  0  0  0  0
  -23.0188   12.3704   29.8171 C   0  0  0  0  0  0  0  0  0  0  0  0
  -23.0903   12.1249   30.8444 H   0  0  0  0  0  0  0  0  0  0  0  0
  1  2  1  0
  2  3  1  0
  2 29  2  0
  3  4  1  0
  3  5  2  0
  5  6  1  0
  5  7  1  0
  7  8  1  0
  7 27  2  0
  8  9  1  0
  8 24  1  0
  9 10  1  0
  9 11  1  0
  9 12  1  0
 12 13  1  0
 12 14  1  0
 12 15  1  0
 15 16  1  0
 15 21  1  0
 16 17  2  0
 16 18  1  0
 18 19  1  0
 18 20  1  0
 21 22  1  0
 21 23  1  0
 21 24  1  0
 24 25  1  0
 24 26  1  0
 27 28  1  0
 27 29  1  0
 29 30  1  0
M  END
$$$$
