F710_85
     RDKit          3D

 30 31  0  0  0  0  0  0  0  0999 V2000
  -25.3146   12.7405   29.7564 F   0  0  0  0  0  0  0  0  0  0  0  0
  -24.1362   12.7170   29.1172 C   0  0  0  0  0  0  0  0  0  0  0  0
  -22.9947   12.3625   29.8262 C   0  0  0  0  0  0  0  0  0  0  0  0
  -23.0604   12.1196   30.8546 H   0  0  0  0  0  0  0  0  0  0  0  0
  -21.7721   12.3394   29.1628 C   0  0  0  0  0  0  0  0  0  0  0  0
  -20.8854   12.0920   29.6837 H   0  0  0  0  0  0  0  0  0  0  0  0
  -21.7091   12.6657   27.8009 C   0  0  0  0  0  0  0  0  0  0  0  0
  -20.4888   12.6445   27.1380 N   0  0  0  0  0  0  0  0  0  0  0  0
  -19.9653   11.4267   26.5045 C   0  0  0  0  0  0  0  0  0  0  0  0
  -19.0782   11.0923   27.0560 H   0  0  0  0  0  0  0  0  0  0  0  0
  -20.6902   10.6052   26.5105 H   0  0  0  0  0  0  0  0  0  0  0  0
  -19.5987   11.7221   25.0417 C   0  0  0  0  0  0  0  0  0  0  0  0
  -20.5070   11.9432   24.4680 H   0  0  0  0  0  0  0  0  0  0  0  0
  -19.1397   10.8361   24.5911 H   0  0  0  0  0  0  0  0  0  0  0  0
  -18.7296   12.8995   24.9171 N   0  0  0  0  0  0  0  0  0  0  0  0
  -17.5432   12.7778   24.2466 C   0  0  0  0  0  0  0  0  0  0  0  0
  -17.0683   11.7126   23.8907 O   0  0  0  0  0  0  0  0  0  0  0  0
  -16.9006   13.9151   23.9694 N   0  0  0  0  0  0  0  0  0  0  0  0
  -16.0356   13.7927   23.4324 H   0  0  0  0  0  0  0  0  0  0  0  0
  -17.4891   14.7280   23.7748 H   0  0  0  0  0  0  0  0  0  0  0  0
  -19.2573   14.1081   25.5753 C   0  0  0  0  0  0  0  0  0  0  0  0
  -18.5386   14.9297   25.5522 H   0  0  0  0  0  0  0  0  0  0  0  0
  -20.1460   14.4156   25.0125 H   0  0  0  0  0  0  0  0  0  0  0  0
  -19.6231   13.8274   27.0424 C   0  0  0  0  0  0  0  0  0  0  0  0
  -20.0648   14.7233   27.4916 H   0  0  0  0  0  0  0  0  0  0  0  0
  -18.7058   13.6214   27.6086 H   0  0  0  0  0  0  0  0  0  0  0  0
  -22.8742   13.0256   27.1037 C   0  0  0  0  0  0  0  0  0  0  0  0
  -22.8357   13.2659   26.0755 H   0  0  0  0  0  0  0  0  0  0  0  0
  -24.0965   13.0492   27.7684 C   0  0  0  0  0  0  0  0  0  0  0  0
  -24.9876   13.3132   27.2615 H   0  0  0  0  0  0  0  0  0  0  0  0
  1  2  1  0
  2  3  1  0
  2 29  2  0
  3  4  1  0
  3  5  2  0
  5  6  1  0
  5  7  1  0
  7  8  1  0
  7 27  2  0
  8  9  1  0
  8 24  1  0
  9 10  1  0
  9 11  1  0
  9 12  1  0
 12 13  1  0
 12 14  1  0
 12 15  1  0
 15 16  1  0
 15 21  1  0
 16 17  2  0
 16 18  1  0
 18 19  1  0
 18 20  1  0
 21 22  1  0
 21 23  1  0
 21 24  1  0
 24 25  1  0
 24 26  1  0
 27 28  1  0
 27 29  1  0
 29 30  1  0
M  END
$$$$
