F488_9
     RDKit          3D

 39 40  0  0  0  0  0  0  0  0999 V2000
  -21.5525   10.3132   26.7837 O   0  0  0  0  0  0  0  0  0  0  0  0
  -21.4204   11.3623   27.4061 C   0  0  0  0  0  0  0  0  0  0  0  0
  -22.5250   11.8552   28.3397 C   0  0  0  0  0  0  0  0  0  0  0  0
  -23.2730   11.0561   28.4056 H   0  0  0  0  0  0  0  0  0  0  0  0
  -22.1340   11.9737   29.3576 H   0  0  0  0  0  0  0  0  0  0  0  0
  -23.1940   13.0306   27.9140 O   0  0  0  0  0  0  0  0  0  0  0  0
  -24.2092   13.5319   28.6882 C   0  0  0  0  0  0  0  0  0  0  0  0
  -24.1237   13.8329   30.0470 C   0  0  0  0  0  0  0  0  0  0  0  0
  -23.2272   13.6756   30.5873 H   0  0  0  0  0  0  0  0  0  0  0  0
  -25.2382   14.3454   30.7035 C   0  0  0  0  0  0  0  0  0  0  0  0
  -25.1758   14.5813   31.7357 H   0  0  0  0  0  0  0  0  0  0  0  0
  -26.4345   14.5478   30.0147 C   0  0  0  0  0  0  0  0  0  0  0  0
  -27.6246   15.1321   30.7211 C   0  0  0  0  0  0  0  0  0  0  0  0
  -27.6067   16.2234   30.6400 H   0  0  0  0  0  0  0  0  0  0  0  0
  -28.5583   14.7594   30.2889 H   0  0  0  0  0  0  0  0  0  0  0  0
  -27.6244   14.8562   31.7805 H   0  0  0  0  0  0  0  0  0  0  0  0
  -26.5096   14.2323   28.6572 C   0  0  0  0  0  0  0  0  0  0  0  0
  -27.4156   14.3779   28.1283 H   0  0  0  0  0  0  0  0  0  0  0  0
  -25.3991   13.7205   27.9932 C   0  0  0  0  0  0  0  0  0  0  0  0
  -25.4560   13.4717   26.9650 H   0  0  0  0  0  0  0  0  0  0  0  0
  -20.2862   12.0900   27.2352 N   0  0  0  0  0  0  0  0  0  0  0  0
  -19.1688   11.5419   26.4529 C   0  0  0  0  0  0  0  0  0  0  0  0
  -18.3598   11.3325   27.1645 H   0  0  0  0  0  0  0  0  0  0  0  0
  -19.4325   10.5910   25.9804 H   0  0  0  0  0  0  0  0  0  0  0  0
  -18.6826   12.5209   25.3812 C   0  0  0  0  0  0  0  0  0  0  0  0
  -19.4554   12.7125   24.6294 H   0  0  0  0  0  0  0  0  0  0  0  0
  -17.7740   12.1497   24.8983 H   0  0  0  0  0  0  0  0  0  0  0  0
  -18.3418   13.8552   26.0267 N   0  0  0  0  0  0  0  0  0  0  0  0
  -17.5997   13.6837   26.7202 H   0  0  0  0  0  0  0  0  0  0  0  0
  -17.7843   14.8308   25.0316 C   0  0  0  0  0  0  0  0  0  0  0  0
  -17.5099   15.7426   25.5688 H   0  0  0  0  0  0  0  0  0  0  0  0
  -16.8955   14.3822   24.5793 H   0  0  0  0  0  0  0  0  0  0  0  0
  -18.5473   15.0356   24.2763 H   0  0  0  0  0  0  0  0  0  0  0  0
  -19.5402   14.4232   26.7672 C   0  0  0  0  0  0  0  0  0  0  0  0
  -20.3110   14.6346   26.0182 H   0  0  0  0  0  0  0  0  0  0  0  0
  -19.2214   15.3548   27.2446 H   0  0  0  0  0  0  0  0  0  0  0  0
  -20.0450   13.4188   27.8140 C   0  0  0  0  0  0  0  0  0  0  0  0
  -20.9459   13.8296   28.2724 H   0  0  0  0  0  0  0  0  0  0  0  0
  -19.2968   13.2914   28.6062 H   0  0  0  0  0  0  0  0  0  0  0  0
  1  2  2  0
  2  3  1  0
  2 21  1  0
  3  4  1  0
  3  5  1  0
  3  6  1  0
  6  7  1  0
  7  8  1  0
  7 19  2  0
  8  9  1  0
  8 10  2  0
 10 11  1  0
 10 12  1  0
 12 13  1  0
 12 17  2  0
 13 14  1  0
 13 15  1  0
 13 16  1  0
 17 18  1  0
 17 19  1  0
 19 20  1  0
 21 22  1  0
 21 37  1  0
 22 23  1  0
 22 24  1  0
 22 25  1  0
 25 26  1  0
 25 27  1  0
 25 28  1  0
 28 29  1  0
 28 30  1  0
 28 34  1  0
 30 31  1  0
 30 32  1  0
 30 33  1  0
 34 35  1  0
 34 36  1  0
 34 37  1  0
 37 38  1  0
 37 39  1  0
M  END
$$$$
