F616_43
     RDKit          3D

 26 26  0  0  0  0  0  0  0  0999 V2000
  -24.2879   12.7566   27.1573 S   0  0  0  0  0  0  0  0  0  0  0  0
  -24.7025   11.6360   27.9729 O   0  0  0  0  0  0  0  0  0  0  0  0
  -24.4099   12.7332   25.7152 O   0  0  0  0  0  0  0  0  0  0  0  0
  -22.6802   13.1227   27.5022 N   0  0  0  0  0  0  0  0  0  0  0  0
  -22.5407   13.9924   28.0227 H   0  0  0  0  0  0  0  0  0  0  0  0
  -21.7233   12.0312   27.7656 C   0  0  0  0  0  0  0  0  0  0  0  0
  -22.0335   11.5272   28.6876 H   0  0  0  0  0  0  0  0  0  0  0  0
  -21.7320   11.2968   26.9527 H   0  0  0  0  0  0  0  0  0  0  0  0
  -20.3134   12.5954   27.9566 C   0  0  0  0  0  0  0  0  0  0  0  0
  -20.3124   13.3759   28.7286 H   0  0  0  0  0  0  0  0  0  0  0  0
  -19.6581   11.8004   28.3346 H   0  0  0  0  0  0  0  0  0  0  0  0
  -19.7174   13.1454   26.6792 C   0  0  0  0  0  0  0  0  0  0  0  0
  -19.5957   12.3244   25.5520 C   0  0  0  0  0  0  0  0  0  0  0  0
  -19.9071   11.3131   25.5929 H   0  0  0  0  0  0  0  0  0  0  0  0
  -19.0633   12.8317   24.3692 C   0  0  0  0  0  0  0  0  0  0  0  0
  -18.9658   12.2202   23.5098 H   0  0  0  0  0  0  0  0  0  0  0  0
  -18.6616   14.1592   24.3315 C   0  0  0  0  0  0  0  0  0  0  0  0
  -18.1489   14.6491   23.1936 F   0  0  0  0  0  0  0  0  0  0  0  0
  -18.7759   14.9960   25.4322 C   0  0  0  0  0  0  0  0  0  0  0  0
  -18.4666   16.0063   25.3696 H   0  0  0  0  0  0  0  0  0  0  0  0
  -19.3075   14.4809   26.6120 C   0  0  0  0  0  0  0  0  0  0  0  0
  -19.4084   15.1116   27.4590 H   0  0  0  0  0  0  0  0  0  0  0  0
  -25.1220   14.2145   27.7461 C   0  0  0  0  0  0  0  0  0  0  0  0
  -24.9900   14.2943   28.8265 H   0  0  0  0  0  0  0  0  0  0  0  0
  -26.1841   14.1106   27.5131 H   0  0  0  0  0  0  0  0  0  0  0  0
  -24.7148   15.0874   27.2333 H   0  0  0  0  0  0  0  0  0  0  0  0
  1  2  2  0
  1  3  2  0
  1  4  1  0
  1 23  1  0
  4  5  1  0
  4  6  1  0
  6  7  1  0
  6  8  1  0
  6  9  1  0
  9 10  1  0
  9 11  1  0
  9 12  1  0
 12 13  1  0
 12 21  2  0
 13 14  1  0
 13 15  2  0
 15 16  1  0
 15 17  1  0
 17 18  1  0
 17 19  2  0
 19 20  1  0
 19 21  1  0
 21 22  1  0
 23 24  1  0
 23 25  1  0
 23 26  1  0
M  END
$$$$
