F741_46
     RDKit          3D

 25 27  0  0  0  0  0  0  0  0999 V2000
  -22.1160   12.4482   29.5996 O   0  0  0  0  0  0  0  0  0  0  0  0
  -22.4322   12.9617   28.5280 C   0  0  0  0  0  0  0  0  0  0  0  0
  -21.4867   13.0683   27.5524 N   0  0  0  0  0  0  0  0  0  0  0  0
  -21.8089   13.4940   26.6678 H   0  0  0  0  0  0  0  0  0  0  0  0
  -20.1357   12.6341   27.6788 C   0  0  0  0  0  0  0  0  0  0  0  0
  -19.9034   12.2547   28.6712 H   0  0  0  0  0  0  0  0  0  0  0  0
  -19.0270   13.3574   26.9632 C   0  0  0  0  0  0  0  0  0  0  0  0
  -19.2785   14.1884   26.3154 H   0  0  0  0  0  0  0  0  0  0  0  0
  -18.0807   13.4658   27.4800 H   0  0  0  0  0  0  0  0  0  0  0  0
  -19.4305   11.9814   26.5223 C   0  0  0  0  0  0  0  0  0  0  0  0
  -18.7636   11.1566   26.7419 H   0  0  0  0  0  0  0  0  0  0  0  0
  -19.9654   11.8842   25.5844 H   0  0  0  0  0  0  0  0  0  0  0  0
  -23.7527   13.4597   28.2204 C   0  0  0  0  0  0  0  0  0  0  0  0
  -24.6031   14.0926   29.0921 C   0  0  0  0  0  0  0  0  0  0  0  0
  -25.7199   14.3717   28.3404 N   0  0  0  0  0  0  0  0  0  0  0  0
  -25.6110   13.9519   27.0520 N   0  0  0  0  0  0  0  0  0  0  0  0
  -24.4205   13.4049   26.9978 C   0  0  0  0  0  0  0  0  0  0  0  0
  -24.0212   12.9722   26.1142 H   0  0  0  0  0  0  0  0  0  0  0  0
  -26.8274   15.0256   28.8947 C   0  0  0  0  0  0  0  0  0  0  0  0
  -27.6404   15.1959   28.2380 H   0  0  0  0  0  0  0  0  0  0  0  0
  -26.7287   15.3649   30.2168 C   0  0  0  0  0  0  0  0  0  0  0  0
  -27.5246   15.8601   30.7088 H   0  0  0  0  0  0  0  0  0  0  0  0
  -25.5464   15.0568   30.9674 C   0  0  0  0  0  0  0  0  0  0  0  0
  -25.4935   15.3293   31.9902 H   0  0  0  0  0  0  0  0  0  0  0  0
  -24.5169   14.4477   30.4450 N   0  0  0  0  0  0  0  0  0  0  0  0
  1  2  2  0
  2  3  1  0
  2 13  1  0
  3  4  1  0
  3  5  1  0
  5  6  1  0
  5  7  1  0
  5 10  1  0
  7  8  1  0
  7  9  1  0
  7 10  1  0
 10 11  1  0
 10 12  1  0
 13 14  2  0
 13 17  1  0
 14 15  1  0
 14 25  1  0
 15 16  1  0
 15 19  1  0
 16 17  2  0
 17 18  1  0
 19 20  1  0
 19 21  2  0
 21 22  1  0
 21 23  1  0
 23 24  1  0
 23 25  2  0
M  END
$$$$
