F126_66
     RDKit          3D

 23 23  0  0  0  0  0  0  0  0999 V2000
  -24.3139   12.3847   29.9904 Cl  0  0  0  0  0  0  0  0  0  0  0  0
  -22.9832   12.5235   28.9065 C   0  0  0  0  0  0  0  0  0  0  0  0
  -23.0896   13.0537   27.6107 C   0  0  0  0  0  0  0  0  0  0  0  0
  -24.3294   13.5643   26.9888 C   0  0  0  0  0  0  0  0  0  0  0  0
  -24.8004   14.6910   27.0328 O   0  0  0  0  0  0  0  0  0  0  0  0
  -25.0783   12.6961   26.2635 N   0  0  0  0  0  0  0  0  0  0  0  0
  -25.9450   13.0404   25.8331 H   0  0  0  0  0  0  0  0  0  0  0  0
  -24.7745   11.7187   26.1675 H   0  0  0  0  0  0  0  0  0  0  0  0
  -21.9700   13.1141   26.8464 N   0  0  0  0  0  0  0  0  0  0  0  0
  -20.8083   12.6818   27.3122 C   0  0  0  0  0  0  0  0  0  0  0  0
  -19.5948   12.7712   26.4218 C   0  0  0  0  0  0  0  0  0  0  0  0
  -19.9281   12.7039   25.3784 H   0  0  0  0  0  0  0  0  0  0  0  0
  -18.8847   14.1119   26.5998 C   0  0  0  0  0  0  0  0  0  0  0  0
  -18.5012   14.2365   27.6195 H   0  0  0  0  0  0  0  0  0  0  0  0
  -19.5664   14.9463   26.3986 H   0  0  0  0  0  0  0  0  0  0  0  0
  -18.0378   14.1961   25.9106 H   0  0  0  0  0  0  0  0  0  0  0  0
  -18.6413   11.6051   26.6822 C   0  0  0  0  0  0  0  0  0  0  0  0
  -18.2468   11.6242   27.7043 H   0  0  0  0  0  0  0  0  0  0  0  0
  -17.7898   11.6404   25.9936 H   0  0  0  0  0  0  0  0  0  0  0  0
  -19.1488   10.6449   26.5403 H   0  0  0  0  0  0  0  0  0  0  0  0
  -20.6845   12.1727   28.5415 N   0  0  0  0  0  0  0  0  0  0  0  0
  -21.7354   12.0869   29.3357 C   0  0  0  0  0  0  0  0  0  0  0  0
  -21.6156   11.6795   30.3080 H   0  0  0  0  0  0  0  0  0  0  0  0
  1  2  1  0
  2  3  1  0
  2 22  2  0
  3  4  1  0
  3  9  2  0
  4  5  2  0
  4  6  1  0
  6  7  1  0
  6  8  1  0
  9 10  1  0
 10 11  1  0
 10 21  2  0
 11 12  1  0
 11 13  1  0
 11 17  1  0
 13 14  1  0
 13 15  1  0
 13 16  1  0
 17 18  1  0
 17 19  1  0
 17 20  1  0
 21 22  1  0
 22 23  1  0
M  END
$$$$
