F467_54
     RDKit          3D

 24 24  0  0  0  0  0  0  0  0999 V2000
  -22.2247   10.6457   27.3862 O   0  0  0  0  0  0  0  0  0  0  0  0
  -22.5748    9.7371   27.3661 H   0  0  0  0  0  0  0  0  0  0  0  0
  -23.2614   11.4816   27.8870 C   0  0  0  0  0  0  0  0  0  0  0  0
  -24.1309   11.3915   27.2287 H   0  0  0  0  0  0  0  0  0  0  0  0
  -23.5344   11.1126   28.8804 H   0  0  0  0  0  0  0  0  0  0  0  0
  -22.7891   12.9374   27.9941 C   0  0  0  0  0  0  0  0  0  0  0  0
  -22.4139   13.3005   27.0300 H   0  0  0  0  0  0  0  0  0  0  0  0
  -21.9263   12.9710   28.6713 H   0  0  0  0  0  0  0  0  0  0  0  0
  -23.8434   13.8231   28.5357 N   0  0  0  0  0  0  0  0  0  0  0  0
  -24.9831   14.0516   27.6478 C   0  0  0  0  0  0  0  0  0  0  0  0
  -24.8062   13.6458   26.6446 H   0  0  0  0  0  0  0  0  0  0  0  0
  -25.1727   15.1238   27.5274 H   0  0  0  0  0  0  0  0  0  0  0  0
  -25.8811   13.5643   28.0428 H   0  0  0  0  0  0  0  0  0  0  0  0
  -23.7016   14.3751   29.7856 C   0  0  0  0  0  0  0  0  0  0  0  0
  -23.4904   13.4893   30.7702 N   0  0  0  0  0  0  0  0  0  0  0  0
  -23.4735   12.5026   30.4896 H   0  0  0  0  0  0  0  0  0  0  0  0
  -23.3067   13.8526   32.0747 C   0  0  0  0  0  0  0  0  0  0  0  0
  -23.1460   13.0550   32.7577 H   0  0  0  0  0  0  0  0  0  0  0  0
  -23.3391   15.1852   32.4131 C   0  0  0  0  0  0  0  0  0  0  0  0
  -23.1981   15.4905   33.4191 H   0  0  0  0  0  0  0  0  0  0  0  0
  -23.5670   16.1532   31.4191 C   0  0  0  0  0  0  0  0  0  0  0  0
  -23.6029   17.1844   31.6774 H   0  0  0  0  0  0  0  0  0  0  0  0
  -23.7505   15.7550   30.1163 C   0  0  0  0  0  0  0  0  0  0  0  0
  -23.9407   16.4724   29.3634 H   0  0  0  0  0  0  0  0  0  0  0  0
  1  2  1  0
  1  3  1  0
  3  4  1  0
  3  5  1  0
  3  6  1  0
  6  7  1  0
  6  8  1  0
  6  9  1  0
  9 10  1  0
  9 14  1  0
 10 11  1  0
 10 12  1  0
 10 13  1  0
 14 15  1  0
 14 23  2  0
 15 16  1  0
 15 17  2  0
 17 18  1  0
 17 19  1  0
 19 20  1  0
 19 21  2  0
 21 22  1  0
 21 23  1  0
 23 24  1  0
M  END
$$$$
