F366_11
     RDKit          3D

 22 22  0  0  0  0  0  0  0  0999 V2000
  -21.6014   13.1237   26.4779 O   0  0  0  0  0  0  0  0  0  0  0  0
  -20.6931   13.4237   26.3000 H   0  0  0  0  0  0  0  0  0  0  0  0
  -21.6250   12.6402   27.8180 C   0  0  0  0  0  0  0  0  0  0  0  0
  -20.8575   11.8664   27.9284 H   0  0  0  0  0  0  0  0  0  0  0  0
  -21.3782   13.4795   28.4761 H   0  0  0  0  0  0  0  0  0  0  0  0
  -23.0152   12.1075   28.1590 C   0  0  0  0  0  0  0  0  0  0  0  0
  -23.2106   11.2153   27.5514 H   0  0  0  0  0  0  0  0  0  0  0  0
  -23.0511   11.8000   29.2122 H   0  0  0  0  0  0  0  0  0  0  0  0
  -24.0988   13.1097   27.9127 C   0  0  0  0  0  0  0  0  0  0  0  0
  -24.4652   14.1320   28.7181 C   0  0  0  0  0  0  0  0  0  0  0  0
  -24.1027   14.4492   29.6604 H   0  0  0  0  0  0  0  0  0  0  0  0
  -25.4761   14.7630   28.0815 N   0  0  0  0  0  0  0  0  0  0  0  0
  -26.2158   15.9264   28.5203 C   0  0  0  0  0  0  0  0  0  0  0  0
  -27.2256   15.8576   28.1019 H   0  0  0  0  0  0  0  0  0  0  0  0
  -26.2992   15.8755   29.6113 H   0  0  0  0  0  0  0  0  0  0  0  0
  -25.5525   17.2225   28.0897 C   0  0  0  0  0  0  0  0  0  0  0  0
  -25.4690   17.2791   26.9982 H   0  0  0  0  0  0  0  0  0  0  0  0
  -24.5431   17.3085   28.5057 H   0  0  0  0  0  0  0  0  0  0  0  0
  -26.1381   18.0812   28.4324 H   0  0  0  0  0  0  0  0  0  0  0  0
  -25.7711   14.1740   26.8959 N   0  0  0  0  0  0  0  0  0  0  0  0
  -24.9329   13.1776   26.8002 C   0  0  0  0  0  0  0  0  0  0  0  0
  -24.9076   12.5106   25.9734 H   0  0  0  0  0  0  0  0  0  0  0  0
  1  2  1  0
  1  3  1  0
  3  4  1  0
  3  5  1  0
  3  6  1  0
  6  7  1  0
  6  8  1  0
  6  9  1  0
  9 10  2  0
  9 21  1  0
 10 11  1  0
 10 12  1  0
 12 13  1  0
 12 20  1  0
 13 14  1  0
 13 15  1  0
 13 16  1  0
 16 17  1  0
 16 18  1  0
 16 19  1  0
 20 21  2  0
 21 22  1  0
M  END
$$$$
