F14_98
     RDKit          3D

 19 19  0  0  0  0  0  0  0  0999 V2000
  -23.9062   19.0971   29.8473 Br  0  0  0  0  0  0  0  0  0  0  0  0
  -22.0675   19.0703   29.5273 C   0  0  0  0  0  0  0  0  0  0  0  0
  -21.4270   19.1949   28.3451 C   0  0  0  0  0  0  0  0  0  0  0  0
  -21.7877   19.3221   27.3573 H   0  0  0  0  0  0  0  0  0  0  0  0
  -20.1089   19.1092   28.6300 N   0  0  0  0  0  0  0  0  0  0  0  0
  -18.9878   19.1920   27.7151 C   0  0  0  0  0  0  0  0  0  0  0  0
  -19.0770   20.1427   27.1777 H   0  0  0  0  0  0  0  0  0  0  0  0
  -18.0786   19.2204   28.3247 H   0  0  0  0  0  0  0  0  0  0  0  0
  -18.9534   18.0140   26.7535 C   0  0  0  0  0  0  0  0  0  0  0  0
  -18.0008   17.9684   26.2127 H   0  0  0  0  0  0  0  0  0  0  0  0
  -19.7682   18.1171   26.0285 H   0  0  0  0  0  0  0  0  0  0  0  0
  -19.1541   16.8035   27.4886 O   0  0  0  0  0  0  0  0  0  0  0  0
  -18.8981   15.6549   26.6911 C   0  0  0  0  0  0  0  0  0  0  0  0
  -19.0806   14.7656   27.2997 H   0  0  0  0  0  0  0  0  0  0  0  0
  -17.8557   15.6443   26.3601 H   0  0  0  0  0  0  0  0  0  0  0  0
  -19.5684   15.6317   25.8267 H   0  0  0  0  0  0  0  0  0  0  0  0
  -19.8883   18.9272   29.9620 N   0  0  0  0  0  0  0  0  0  0  0  0
  -21.0828   18.9080   30.4959 C   0  0  0  0  0  0  0  0  0  0  0  0
  -21.2571   18.7812   31.5334 H   0  0  0  0  0  0  0  0  0  0  0  0
  1  2  1  0
  2  3  2  0
  2 18  1  0
  3  4  1  0
  3  5  1  0
  5  6  1  0
  5 17  1  0
  6  7  1  0
  6  8  1  0
  6  9  1  0
  9 10  1  0
  9 11  1  0
  9 12  1  0
 12 13  1  0
 13 14  1  0
 13 15  1  0
 13 16  1  0
 17 18  2  0
 18 19  1  0
M  END
$$$$
