F603_95
     RDKit          3D

 24 25  0  0  0  0  0  0  0  0999 V2000
  -18.3971   13.4549   26.3778 S   0  0  0  0  0  0  0  0  0  0  0  0
  -18.3804   12.9659   25.0134 O   0  0  0  0  0  0  0  0  0  0  0  0
  -17.1939   13.9951   26.9891 O   0  0  0  0  0  0  0  0  0  0  0  0
  -19.0168   12.1668   27.4477 C   0  0  0  0  0  0  0  0  0  0  0  0
  -18.9023   11.2130   26.9253 H   0  0  0  0  0  0  0  0  0  0  0  0
  -18.4086   12.1665   28.3564 H   0  0  0  0  0  0  0  0  0  0  0  0
  -20.4506   12.4175   27.7588 C   0  0  0  0  0  0  0  0  0  0  0  0
  -21.4708   11.7007   27.1947 N   0  0  0  0  0  0  0  0  0  0  0  0
  -21.3790   10.9569   26.4883 H   0  0  0  0  0  0  0  0  0  0  0  0
  -22.6383   12.1414   27.7245 C   0  0  0  0  0  0  0  0  0  0  0  0
  -22.2701   13.1306   28.6127 C   0  0  0  0  0  0  0  0  0  0  0  0
  -20.8991   13.2782   28.6112 N   0  0  0  0  0  0  0  0  0  0  0  0
  -23.2652   13.7980   29.3390 C   0  0  0  0  0  0  0  0  0  0  0  0
  -22.9900   14.5593   30.0210 H   0  0  0  0  0  0  0  0  0  0  0  0
  -24.5955   13.4477   29.1460 C   0  0  0  0  0  0  0  0  0  0  0  0
  -25.3563   13.9463   29.6891 H   0  0  0  0  0  0  0  0  0  0  0  0
  -24.9474   12.4292   28.2298 C   0  0  0  0  0  0  0  0  0  0  0  0
  -25.9695   12.1768   28.0983 H   0  0  0  0  0  0  0  0  0  0  0  0
  -23.9703   11.7635   27.5071 C   0  0  0  0  0  0  0  0  0  0  0  0
  -24.2197   10.9994   26.8168 H   0  0  0  0  0  0  0  0  0  0  0  0
  -19.6597   14.6975   26.4866 C   0  0  0  0  0  0  0  0  0  0  0  0
  -20.5998   14.2766   26.1258 H   0  0  0  0  0  0  0  0  0  0  0  0
  -19.3624   15.5415   25.8609 H   0  0  0  0  0  0  0  0  0  0  0  0
  -19.7522   15.0179   27.5265 H   0  0  0  0  0  0  0  0  0  0  0  0
  1  2  2  0
  1  3  2  0
  1  4  1  0
  1 21  1  0
  4  5  1  0
  4  6  1  0
  4  7  1  0
  7  8  1  0
  7 12  2  0
  8  9  1  0
  8 10  1  0
 10 11  1  0
 10 19  2  0
 11 12  1  0
 11 13  2  0
 13 14  1  0
 13 15  1  0
 15 16  1  0
 15 17  2  0
 17 18  1  0
 17 19  1  0
 19 20  1  0
 21 22  1  0
 21 23  1  0
 21 24  1  0
M  END
$$$$
