F650_15
     RDKit          3D

 23 24  0  0  0  0  0  0  0  0999 V2000
  -25.4572   14.4803   26.7128 O   0  0  0  0  0  0  0  0  0  0  0  0
  -24.8040   14.1883   27.7097 C   0  0  0  0  0  0  0  0  0  0  0  0
  -24.9595   14.9990   28.8223 N   0  0  0  0  0  0  0  0  0  0  0  0
  -24.2328   14.9388   30.0859 C   0  0  0  0  0  0  0  0  0  0  0  0
  -24.2905   13.9476   30.5371 H   0  0  0  0  0  0  0  0  0  0  0  0
  -23.1851   15.1858   29.8851 H   0  0  0  0  0  0  0  0  0  0  0  0
  -24.9009   15.9820   30.9740 C   0  0  0  0  0  0  0  0  0  0  0  0
  -25.7295   15.5240   31.5283 H   0  0  0  0  0  0  0  0  0  0  0  0
  -24.2105   16.4239   31.6961 H   0  0  0  0  0  0  0  0  0  0  0  0
  -25.4491   16.9904   29.9762 C   0  0  0  0  0  0  0  0  0  0  0  0
  -24.6448   17.6582   29.6448 H   0  0  0  0  0  0  0  0  0  0  0  0
  -26.2585   17.6014   30.3849 H   0  0  0  0  0  0  0  0  0  0  0  0
  -25.9027   16.1088   28.8245 C   0  0  0  0  0  0  0  0  0  0  0  0
  -25.9055   16.6381   27.8675 H   0  0  0  0  0  0  0  0  0  0  0  0
  -26.9021   15.6958   29.0048 H   0  0  0  0  0  0  0  0  0  0  0  0
  -23.8588   13.0883   27.7226 C   0  0  0  0  0  0  0  0  0  0  0  0
  -24.1768   11.8105   27.3690 C   0  0  0  0  0  0  0  0  0  0  0  0
  -25.0843   11.3868   27.0238 H   0  0  0  0  0  0  0  0  0  0  0  0
  -23.0591   11.0879   27.5452 N   0  0  0  0  0  0  0  0  0  0  0  0
  -22.9742   10.0693   27.3628 H   0  0  0  0  0  0  0  0  0  0  0  0
  -22.0258   11.8454   28.0073 N   0  0  0  0  0  0  0  0  0  0  0  0
  -22.5199   13.0453   28.1197 C   0  0  0  0  0  0  0  0  0  0  0  0
  -21.9594   13.8687   28.4829 H   0  0  0  0  0  0  0  0  0  0  0  0
  1  2  2  0
  2  3  1  0
  2 16  1  0
  3  4  1  0
  3 13  1  0
  4  5  1  0
  4  6  1  0
  4  7  1  0
  7  8  1  0
  7  9  1  0
  7 10  1  0
 10 11  1  0
 10 12  1  0
 10 13  1  0
 13 14  1  0
 13 15  1  0
 16 17  2  0
 16 22  1  0
 17 18  1  0
 17 19  1  0
 19 20  1  0
 19 21  1  0
 21 22  2  0
 22 23  1  0
M  END
$$$$
