F95_29
     RDKit          3D

 27 27  0  0  0  0  0  0  0  0999 V2000
  -19.4678   12.3283   26.0300 S   0  0  0  0  0  0  0  0  0  0  0  0
  -19.9114   12.0619   24.6792 O   0  0  0  0  0  0  0  0  0  0  0  0
  -18.5933   13.4369   26.3440 O   0  0  0  0  0  0  0  0  0  0  0  0
  -18.7098   10.9283   26.5859 N   0  0  0  0  0  0  0  0  0  0  0  0
  -18.2315   11.0751   27.4779 H   0  0  0  0  0  0  0  0  0  0  0  0
  -18.1219   10.4963   25.8689 H   0  0  0  0  0  0  0  0  0  0  0  0
  -20.8746   12.4077   27.0798 C   0  0  0  0  0  0  0  0  0  0  0  0
  -21.1760   13.5799   27.7795 C   0  0  0  0  0  0  0  0  0  0  0  0
  -20.5647   14.4394   27.6491 H   0  0  0  0  0  0  0  0  0  0  0  0
  -22.2591   13.6278   28.6494 C   0  0  0  0  0  0  0  0  0  0  0  0
  -22.4709   14.5243   29.1760 H   0  0  0  0  0  0  0  0  0  0  0  0
  -23.0584   12.5021   28.8389 C   0  0  0  0  0  0  0  0  0  0  0  0
  -24.1865   12.5323   29.8329 C   0  0  0  0  0  0  0  0  0  0  0  0
  -23.9227   13.1438   30.7046 H   0  0  0  0  0  0  0  0  0  0  0  0
  -24.4074   11.5243   30.2051 H   0  0  0  0  0  0  0  0  0  0  0  0
  -25.3830   13.0746   29.2259 N   0  0  0  0  0  0  0  0  0  0  0  0
  -26.0224   12.4269   28.7985 H   0  0  0  0  0  0  0  0  0  0  0  0
  -25.6504   14.3732   29.2194 C   0  0  0  0  0  0  0  0  0  0  0  0
  -24.9008   15.1931   29.7285 O   0  0  0  0  0  0  0  0  0  0  0  0
  -26.9419   14.7567   28.5554 C   0  0  0  0  0  0  0  0  0  0  0  0
  -26.9899   14.3260   27.5511 H   0  0  0  0  0  0  0  0  0  0  0  0
  -27.7832   14.3882   29.1492 H   0  0  0  0  0  0  0  0  0  0  0  0
  -27.0069   15.8453   28.4761 H   0  0  0  0  0  0  0  0  0  0  0  0
  -22.7584   11.3275   28.1535 C   0  0  0  0  0  0  0  0  0  0  0  0
  -23.3525   10.4607   28.3015 H   0  0  0  0  0  0  0  0  0  0  0  0
  -21.6736   11.2801   27.2836 C   0  0  0  0  0  0  0  0  0  0  0  0
  -21.4446   10.3762   26.7747 H   0  0  0  0  0  0  0  0  0  0  0  0
  1  2  2  0
  1  3  2  0
  1  4  1  0
  1  7  1  0
  4  5  1  0
  4  6  1  0
  7  8  1  0
  7 26  2  0
  8  9  1  0
  8 10  2  0
 10 11  1  0
 10 12  1  0
 12 13  1  0
 12 24  2  0
 13 14  1  0
 13 15  1  0
 13 16  1  0
 16 17  1  0
 16 18  1  0
 18 19  2  0
 18 20  1  0
 20 21  1  0
 20 22  1  0
 20 23  1  0
 24 25  1  0
 24 26  1  0
 26 27  1  0
M  END
$$$$
