F579_56
     RDKit          3D

 29 31  0  0  0  0  0  0  0  0999 V2000
  -18.8765   13.0841   27.3078 O   0  0  0  0  0  0  0  0  0  0  0  0
  -19.5166   13.0937   26.2802 C   0  0  0  0  0  0  0  0  0  0  0  0
  -20.8647   12.9037   26.2735 N   0  0  0  0  0  0  0  0  0  0  0  0
  -21.3216   12.9053   25.3577 H   0  0  0  0  0  0  0  0  0  0  0  0
  -21.7315   12.6987   27.3213 C   0  0  0  0  0  0  0  0  0  0  0  0
  -21.1717   12.2492   28.9031 S   0  0  0  0  0  0  0  0  0  0  0  0
  -22.8198   12.2475   29.4276 C   0  0  0  0  0  0  0  0  0  0  0  0
  -23.6492   12.5875   28.3598 C   0  0  0  0  0  0  0  0  0  0  0  0
  -23.0082   12.8449   27.1542 N   0  0  0  0  0  0  0  0  0  0  0  0
  -25.0369   12.6463   28.5700 C   0  0  0  0  0  0  0  0  0  0  0  0
  -25.6715   12.9029   27.7628 H   0  0  0  0  0  0  0  0  0  0  0  0
  -25.5614   12.3682   29.8241 C   0  0  0  0  0  0  0  0  0  0  0  0
  -26.6077   12.4141   29.9784 H   0  0  0  0  0  0  0  0  0  0  0  0
  -24.6964   12.0275   30.8882 C   0  0  0  0  0  0  0  0  0  0  0  0
  -25.0981   11.7349   32.1678 O   0  0  0  0  0  0  0  0  0  0  0  0
  -24.9991   12.7725   33.1364 C   0  0  0  0  0  0  0  0  0  0  0  0
  -25.6396   13.6207   32.8725 H   0  0  0  0  0  0  0  0  0  0  0  0
  -25.3538   12.3733   34.0914 H   0  0  0  0  0  0  0  0  0  0  0  0
  -23.9593   13.0872   33.2732 H   0  0  0  0  0  0  0  0  0  0  0  0
  -23.3276   11.9641   30.7027 C   0  0  0  0  0  0  0  0  0  0  0  0
  -22.6817   11.7069   31.5012 H   0  0  0  0  0  0  0  0  0  0  0  0
  -18.8914   13.3299   24.9605 C   0  0  0  0  0  0  0  0  0  0  0  0
  -19.0697   12.5298   24.2470 H   0  0  0  0  0  0  0  0  0  0  0  0
  -17.5903   14.0876   24.8394 C   0  0  0  0  0  0  0  0  0  0  0  0
  -17.1250   14.4926   25.7311 H   0  0  0  0  0  0  0  0  0  0  0  0
  -16.8873   13.7680   24.0797 H   0  0  0  0  0  0  0  0  0  0  0  0
  -18.8697   14.7246   24.3835 C   0  0  0  0  0  0  0  0  0  0  0  0
  -19.0349   14.8333   23.3185 H   0  0  0  0  0  0  0  0  0  0  0  0
  -19.2763   15.5349   24.9795 H   0  0  0  0  0  0  0  0  0  0  0  0
  1  2  2  0
  2  3  1  0
  2 22  1  0
  3  4  1  0
  3  5  1  0
  5  6  1  0
  5  9  2  0
  6  7  1  0
  7  8  1  0
  7 20  2  0
  8  9  1  0
  8 10  2  0
 10 11  1  0
 10 12  1  0
 12 13  1  0
 12 14  2  0
 14 15  1  0
 14 20  1  0
 15 16  1  0
 16 17  1  0
 16 18  1  0
 16 19  1  0
 20 21  1  0
 22 23  1  0
 22 24  1  0
 22 27  1  0
 24 25  1  0
 24 26  1  0
 24 27  1  0
 27 28  1  0
 27 29  1  0
M  END
$$$$
