F5_21
     RDKit          3D

 21 21  0  0  0  0  0  0  0  0999 V2000
  -21.9775   10.8953   32.6327 Br  0  0  0  0  0  0  0  0  0  0  0  0
  -23.0454   12.1083   31.6483 C   0  0  0  0  0  0  0  0  0  0  0  0
  -23.4142   11.8102   30.3410 C   0  0  0  0  0  0  0  0  0  0  0  0
  -23.1024   10.9098   29.8842 H   0  0  0  0  0  0  0  0  0  0  0  0
  -24.1969   12.7124   29.6266 C   0  0  0  0  0  0  0  0  0  0  0  0
  -24.5150   12.3809   28.3354 O   0  0  0  0  0  0  0  0  0  0  0  0
  -23.6244   12.8557   27.2969 C   0  0  0  0  0  0  0  0  0  0  0  0
  -24.1012   12.6784   26.3343 H   0  0  0  0  0  0  0  0  0  0  0  0
  -22.6871   12.3066   27.3748 H   0  0  0  0  0  0  0  0  0  0  0  0
  -23.4480   13.9213   27.4402 H   0  0  0  0  0  0  0  0  0  0  0  0
  -24.6385   13.9120   30.2020 C   0  0  0  0  0  0  0  0  0  0  0  0
  -25.5318   14.9074   29.4612 C   0  0  0  0  0  0  0  0  0  0  0  0
  -24.9102   15.5709   28.8802 H   0  0  0  0  0  0  0  0  0  0  0  0
  -26.1731   15.4419   30.1420 H   0  0  0  0  0  0  0  0  0  0  0  0
  -26.4123   14.1500   28.4930 C   0  0  0  0  0  0  0  0  0  0  0  0
  -26.3757   14.4948   27.2900 O   0  0  0  0  0  0  0  0  0  0  0  0
  -27.1613   13.2610   28.9559 O   0  0  0  0  0  0  0  0  0  0  0  0
  -24.2525   14.1968   31.5108 C   0  0  0  0  0  0  0  0  0  0  0  0
  -24.5601   15.1108   31.9564 H   0  0  0  0  0  0  0  0  0  0  0  0
  -23.4621   13.3043   32.2308 C   0  0  0  0  0  0  0  0  0  0  0  0
  -23.1749   13.5387   33.2225 H   0  0  0  0  0  0  0  0  0  0  0  0
  1  2  1  0
  2  3  1  0
  2 20  2  0
  3  4  1  0
  3  5  2  0
  5  6  1  0
  5 11  1  0
  6  7  1  0
  7  8  1  0
  7  9  1  0
  7 10  1  0
 11 12  1  0
 11 18  2  0
 12 13  1  0
 12 14  1  0
 12 15  1  0
 15 16  1  0
 15 17  2  0
 18 19  1  0
 18 20  1  0
 20 21  1  0
M  END
$$$$
