F760_45
     RDKit          3D

 17 18  0  0  0  0  0  0  0  0999 V2000
  -25.5431   17.7933   29.7030 Br  0  0  0  0  0  0  0  0  0  0  0  0
  -24.8102   16.0512   29.6422 C   0  0  0  0  0  0  0  0  0  0  0  0
  -24.8661   15.3149   28.4611 C   0  0  0  0  0  0  0  0  0  0  0  0
  -25.3148   15.7103   27.5881 H   0  0  0  0  0  0  0  0  0  0  0  0
  -24.3155   14.0403   28.4671 C   0  0  0  0  0  0  0  0  0  0  0  0
  -24.2582   13.1355   27.4175 N   0  0  0  0  0  0  0  0  0  0  0  0
  -24.6164   13.2635   26.4633 H   0  0  0  0  0  0  0  0  0  0  0  0
  -23.6447   11.9891   27.7952 C   0  0  0  0  0  0  0  0  0  0  0  0
  -23.5000   11.0774   27.0149 O   0  0  0  0  0  0  0  0  0  0  0  0
  -23.2298   12.1063   29.2600 C   0  0  0  0  0  0  0  0  0  0  0  0
  -23.7410   11.3448   29.8533 H   0  0  0  0  0  0  0  0  0  0  0  0
  -22.1429   12.0357   29.3443 H   0  0  0  0  0  0  0  0  0  0  0  0
  -23.7217   13.4835   29.5817 C   0  0  0  0  0  0  0  0  0  0  0  0
  -23.6639   14.2191   30.7605 C   0  0  0  0  0  0  0  0  0  0  0  0
  -23.2113   13.8111   31.6289 H   0  0  0  0  0  0  0  0  0  0  0  0
  -24.2102   15.5051   30.7872 C   0  0  0  0  0  0  0  0  0  0  0  0
  -24.1723   16.0752   31.6793 H   0  0  0  0  0  0  0  0  0  0  0  0
  1  2  1  0
  2  3  1  0
  2 16  2  0
  3  4  1  0
  3  5  2  0
  5  6  1  0
  5 13  1  0
  6  7  1  0
  6  8  1  0
  8  9  2  0
  8 10  1  0
 10 11  1  0
 10 12  1  0
 10 13  1  0
 13 14  2  0
 14 15  1  0
 14 16  1  0
 16 17  1  0
M  END
$$$$
