F229_93
     RDKit          3D

 27 28  0  0  0  0  0  0  0  0999 V2000
  -22.0125   11.7803   29.9710 F   0  0  0  0  0  0  0  0  0  0  0  0
  -23.1043   12.2160   29.3221 C   0  0  0  0  0  0  0  0  0  0  0  0
  -23.0199   12.6792   27.9937 C   0  0  0  0  0  0  0  0  0  0  0  0
  -21.8385   12.7181   27.2641 N   0  0  0  0  0  0  0  0  0  0  0  0
  -21.8259   12.3120   26.3359 H   0  0  0  0  0  0  0  0  0  0  0  0
  -20.6004   13.3145   27.7344 C   0  0  0  0  0  0  0  0  0  0  0  0
  -20.8252   14.2495   28.2622 H   0  0  0  0  0  0  0  0  0  0  0  0
  -20.1189   12.6434   28.4556 H   0  0  0  0  0  0  0  0  0  0  0  0
  -19.6143   13.6129   26.6466 C   0  0  0  0  0  0  0  0  0  0  0  0
  -18.8281   12.6942   25.9541 C   0  0  0  0  0  0  0  0  0  0  0  0
  -18.7644   11.2222   26.1202 C   0  0  0  0  0  0  0  0  0  0  0  0
  -19.7662   10.7844   26.0565 H   0  0  0  0  0  0  0  0  0  0  0  0
  -18.3390   10.9675   27.0966 H   0  0  0  0  0  0  0  0  0  0  0  0
  -18.1448   10.7534   25.3486 H   0  0  0  0  0  0  0  0  0  0  0  0
  -18.0864   13.2922   25.0649 N   0  0  0  0  0  0  0  0  0  0  0  0
  -18.3945   14.6075   25.1761 N   0  0  0  0  0  0  0  0  0  0  0  0
  -17.9554   15.3389   24.5861 H   0  0  0  0  0  0  0  0  0  0  0  0
  -19.3233   14.8288   26.1285 C   0  0  0  0  0  0  0  0  0  0  0  0
  -19.6892   15.7964   26.3517 H   0  0  0  0  0  0  0  0  0  0  0  0
  -24.1880   13.1120   27.3634 C   0  0  0  0  0  0  0  0  0  0  0  0
  -24.1507   13.4501   26.3613 H   0  0  0  0  0  0  0  0  0  0  0  0
  -25.3998   13.0977   28.0522 C   0  0  0  0  0  0  0  0  0  0  0  0
  -26.2836   13.4308   27.5696 H   0  0  0  0  0  0  0  0  0  0  0  0
  -25.4649   12.6469   29.3727 C   0  0  0  0  0  0  0  0  0  0  0  0
  -26.3927   12.6405   29.8861 H   0  0  0  0  0  0  0  0  0  0  0  0
  -24.3091   12.2013   30.0105 C   0  0  0  0  0  0  0  0  0  0  0  0
  -24.3460   11.8504   31.0103 H   0  0  0  0  0  0  0  0  0  0  0  0
  1  2  1  0
  2  3  1  0
  2 26  2  0
  3  4  1  0
  3 20  2  0
  4  5  1  0
  4  6  1  0
  6  7  1  0
  6  8  1  0
  6  9  1  0
  9 10  1  0
  9 18  2  0
 10 11  1  0
 10 15  2  0
 11 12  1  0
 11 13  1  0
 11 14  1  0
 15 16  1  0
 16 17  1  0
 16 18  1  0
 18 19  1  0
 20 21  1  0
 20 22  1  0
 22 23  1  0
 22 24  2  0
 24 25  1  0
 24 26  1  0
 26 27  1  0
M  END
$$$$
