F368_27
     RDKit          3D

 29 30  0  0  0  0  0  0  0  0999 V2000
  -20.7630   14.3106   28.0338 O   0  0  0  0  0  0  0  0  0  0  0  0
  -20.7406   13.3240   27.3221 C   0  0  0  0  0  0  0  0  0  0  0  0
  -21.8596   12.5566   27.1459 N   0  0  0  0  0  0  0  0  0  0  0  0
  -21.7382   11.7388   26.5374 H   0  0  0  0  0  0  0  0  0  0  0  0
  -23.1216   12.7520   27.6918 C   0  0  0  0  0  0  0  0  0  0  0  0
  -23.5255   13.7594   28.4932 C   0  0  0  0  0  0  0  0  0  0  0  0
  -23.0173   14.6011   28.8812 H   0  0  0  0  0  0  0  0  0  0  0  0
  -24.8308   13.4964   28.7512 N   0  0  0  0  0  0  0  0  0  0  0  0
  -25.7422   14.2660   29.5699 C   0  0  0  0  0  0  0  0  0  0  0  0
  -26.1752   13.5864   30.3128 H   0  0  0  0  0  0  0  0  0  0  0  0
  -25.1549   15.0188   30.1067 H   0  0  0  0  0  0  0  0  0  0  0  0
  -26.8307   14.9313   28.7471 C   0  0  0  0  0  0  0  0  0  0  0  0
  -27.4967   15.5098   29.3945 H   0  0  0  0  0  0  0  0  0  0  0  0
  -26.4017   15.6098   28.0028 H   0  0  0  0  0  0  0  0  0  0  0  0
  -27.4330   14.1882   28.2141 H   0  0  0  0  0  0  0  0  0  0  0  0
  -25.2594   12.3567   28.1320 N   0  0  0  0  0  0  0  0  0  0  0  0
  -24.2106   11.9103   27.4906 C   0  0  0  0  0  0  0  0  0  0  0  0
  -24.2157   11.0272   26.9059 H   0  0  0  0  0  0  0  0  0  0  0  0
  -19.4886   12.8124   26.5493 C   0  0  0  0  0  0  0  0  0  0  0  0
  -18.8709   12.1335   27.1569 H   0  0  0  0  0  0  0  0  0  0  0  0
  -19.7242   12.2180   25.1332 C   0  0  0  0  0  0  0  0  0  0  0  0
  -20.6001   12.6197   24.6123 H   0  0  0  0  0  0  0  0  0  0  0  0
  -19.7490   11.1260   25.0776 H   0  0  0  0  0  0  0  0  0  0  0  0
  -18.3961   12.8708   24.7067 C   0  0  0  0  0  0  0  0  0  0  0  0
  -18.3743   13.2907   23.6983 H   0  0  0  0  0  0  0  0  0  0  0  0
  -17.5229   12.2230   24.8448 H   0  0  0  0  0  0  0  0  0  0  0  0
  -18.6031   13.8814   25.8507 C   0  0  0  0  0  0  0  0  0  0  0  0
  -19.1412   14.7871   25.5463 H   0  0  0  0  0  0  0  0  0  0  0  0
  -17.6979   14.1717   26.3900 H   0  0  0  0  0  0  0  0  0  0  0  0
  1  2  2  0
  2  3  1  0
  2 19  1  0
  3  4  1  0
  3  5  1  0
  5  6  2  0
  5 17  1  0
  6  7  1  0
  6  8  1  0
  8  9  1  0
  8 16  1  0
  9 10  1  0
  9 11  1  0
  9 12  1  0
 12 13  1  0
 12 14  1  0
 12 15  1  0
 16 17  2  0
 17 18  1  0
 19 20  1  0
 19 21  1  0
 19 27  1  0
 21 22  1  0
 21 23  1  0
 21 24  1  0
 24 25  1  0
 24 26  1  0
 24 27  1  0
 27 28  1  0
 27 29  1  0
M  END
$$$$
