F217_88
     RDKit          3D

 28 29  0  0  0  0  0  0  0  0999 V2000
  -17.1136   14.8370   26.3321 O   0  0  0  0  0  0  0  0  0  0  0  0
  -17.9499   14.4127   25.5520 C   0  0  0  0  0  0  0  0  0  0  0  0
  -17.5776   14.0307   24.3466 N   0  0  0  0  0  0  0  0  0  0  0  0
  -16.5979   14.1135   24.1310 H   0  0  0  0  0  0  0  0  0  0  0  0
  -18.2436   13.6810   23.6803 H   0  0  0  0  0  0  0  0  0  0  0  0
  -19.4171   14.2836   25.8644 C   0  0  0  0  0  0  0  0  0  0  0  0
  -19.8859   15.2678   25.7558 H   0  0  0  0  0  0  0  0  0  0  0  0
  -19.8703   13.6189   25.1191 H   0  0  0  0  0  0  0  0  0  0  0  0
  -19.6297   13.7413   27.2715 C   0  0  0  0  0  0  0  0  0  0  0  0
  -19.9600   14.5314   27.9546 H   0  0  0  0  0  0  0  0  0  0  0  0
  -18.6982   13.3406   27.6900 H   0  0  0  0  0  0  0  0  0  0  0  0
  -20.6138   12.6755   27.2917 N   0  0  0  0  0  0  0  0  0  0  0  0
  -20.4823   11.4192   26.7464 C   0  0  0  0  0  0  0  0  0  0  0  0
  -19.2652   10.9655   26.0226 C   0  0  0  0  0  0  0  0  0  0  0  0
  -19.3480    9.9057   25.7636 H   0  0  0  0  0  0  0  0  0  0  0  0
  -18.3724   11.0908   26.6415 H   0  0  0  0  0  0  0  0  0  0  0  0
  -19.1371   11.5294   25.0938 H   0  0  0  0  0  0  0  0  0  0  0  0
  -21.5357   10.6987   26.9440 N   0  0  0  0  0  0  0  0  0  0  0  0
  -22.4094   11.4984   27.6469 C   0  0  0  0  0  0  0  0  0  0  0  0
  -21.8467   12.7388   27.8700 C   0  0  0  0  0  0  0  0  0  0  0  0
  -22.5102   13.7616   28.5634 C   0  0  0  0  0  0  0  0  0  0  0  0
  -22.0572   14.7069   28.7173 H   0  0  0  0  0  0  0  0  0  0  0  0
  -23.7841   13.4931   29.0401 C   0  0  0  0  0  0  0  0  0  0  0  0
  -24.3198   14.2375   29.5690 H   0  0  0  0  0  0  0  0  0  0  0  0
  -24.3768   12.2281   28.8244 C   0  0  0  0  0  0  0  0  0  0  0  0
  -25.3526   12.0392   29.1956 H   0  0  0  0  0  0  0  0  0  0  0  0
  -23.6973   11.2348   28.1323 C   0  0  0  0  0  0  0  0  0  0  0  0
  -24.1324   10.2860   27.9641 H   0  0  0  0  0  0  0  0  0  0  0  0
  1  2  2  0
  2  3  1  0
  2  6  1  0
  3  4  1  0
  3  5  1  0
  6  7  1  0
  6  8  1  0
  6  9  1  0
  9 10  1  0
  9 11  1  0
  9 12  1  0
 12 13  1  0
 12 20  1  0
 13 14  1  0
 13 18  2  0
 14 15  1  0
 14 16  1  0
 14 17  1  0
 18 19  1  0
 19 20  1  0
 19 27  2  0
 20 21  2  0
 21 22  1  0
 21 23  1  0
 23 24  1  0
 23 25  2  0
 25 26  1  0
 25 27  1  0
 27 28  1  0
M  END
$$$$
