F199_61
     RDKit          3D

 25 26  0  0  0  0  0  0  0  0999 V2000
  -21.4667   11.4112   27.2448 O   0  0  0  0  0  0  0  0  0  0  0  0
  -21.0787   12.5417   27.5318 C   0  0  0  0  0  0  0  0  0  0  0  0
  -21.9473   13.4140   28.1413 N   0  0  0  0  0  0  0  0  0  0  0  0
  -21.5358   14.3358   28.3439 H   0  0  0  0  0  0  0  0  0  0  0  0
  -23.2656   13.1862   28.4932 C   0  0  0  0  0  0  0  0  0  0  0  0
  -24.0149   14.1275   29.1024 C   0  0  0  0  0  0  0  0  0  0  0  0
  -23.7986   15.1162   29.4082 H   0  0  0  0  0  0  0  0  0  0  0  0
  -25.2258   13.5440   29.2819 N   0  0  0  0  0  0  0  0  0  0  0  0
  -26.4005   14.1130   29.8902 C   0  0  0  0  0  0  0  0  0  0  0  0
  -26.1808   15.1287   30.2274 H   0  0  0  0  0  0  0  0  0  0  0  0
  -26.6847   13.4901   30.7421 H   0  0  0  0  0  0  0  0  0  0  0  0
  -27.1999   14.1321   29.1452 H   0  0  0  0  0  0  0  0  0  0  0  0
  -25.2616   12.2704   28.8070 N   0  0  0  0  0  0  0  0  0  0  0  0
  -24.0630   12.0547   28.3253 C   0  0  0  0  0  0  0  0  0  0  0  0
  -23.7658   11.1422   27.8769 H   0  0  0  0  0  0  0  0  0  0  0  0
  -19.7457   13.0490   27.2764 C   0  0  0  0  0  0  0  0  0  0  0  0
  -18.7059   12.2607   27.1630 N   0  0  0  0  0  0  0  0  0  0  0  0
  -17.6488   13.0345   26.9345 O   0  0  0  0  0  0  0  0  0  0  0  0
  -18.0076   14.3218   26.9014 C   0  0  0  0  0  0  0  0  0  0  0  0
  -16.9446   15.3093   26.6572 C   0  0  0  0  0  0  0  0  0  0  0  0
  -17.3453   16.3275   26.6587 H   0  0  0  0  0  0  0  0  0  0  0  0
  -16.4717   15.1308   25.6867 H   0  0  0  0  0  0  0  0  0  0  0  0
  -16.1750   15.2454   27.4320 H   0  0  0  0  0  0  0  0  0  0  0  0
  -19.3287   14.3717   27.1152 C   0  0  0  0  0  0  0  0  0  0  0  0
  -19.9372   15.2376   27.1533 H   0  0  0  0  0  0  0  0  0  0  0  0
  1  2  2  0
  2  3  1  0
  2 16  1  0
  3  4  1  0
  3  5  1  0
  5  6  2  0
  5 14  1  0
  6  7  1  0
  6  8  1  0
  8  9  1  0
  8 13  1  0
  9 10  1  0
  9 11  1  0
  9 12  1  0
 13 14  2  0
 14 15  1  0
 16 17  2  0
 16 24  1  0
 17 18  1  0
 18 19  1  0
 19 20  1  0
 19 24  2  0
 20 21  1  0
 20 22  1  0
 20 23  1  0
 24 25  1  0
M  END
$$$$
