F179_6
     RDKit          3D

 29 30  0  0  0  0  0  0  0  0999 V2000
  -18.8982   12.4512   27.3886 C   0  0  0  0  0  0  0  0  0  0  0  0
  -19.0303   13.4715   27.7621 H   0  0  0  0  0  0  0  0  0  0  0  0
  -18.0060   12.4264   26.7528 H   0  0  0  0  0  0  0  0  0  0  0  0
  -18.6941   11.7956   28.2423 H   0  0  0  0  0  0  0  0  0  0  0  0
  -20.1219   11.9755   26.6120 C   0  0  0  0  0  0  0  0  0  0  0  0
  -19.8726   10.6533   26.1336 O   0  0  0  0  0  0  0  0  0  0  0  0
  -20.6291   10.3997   25.5778 H   0  0  0  0  0  0  0  0  0  0  0  0
  -21.3634   12.0199   27.4436 C   0  0  0  0  0  0  0  0  0  0  0  0
  -22.2859   10.9953   27.6211 C   0  0  0  0  0  0  0  0  0  0  0  0
  -22.2289   10.0351   27.1721 H   0  0  0  0  0  0  0  0  0  0  0  0
  -23.2515   11.3594   28.4212 N   0  0  0  0  0  0  0  0  0  0  0  0
  -22.9578   12.6445   28.7680 N   0  0  0  0  0  0  0  0  0  0  0  0
  -23.8165   13.3919   29.6538 C   0  0  0  0  0  0  0  0  0  0  0  0
  -23.2988   13.4693   30.6206 H   0  0  0  0  0  0  0  0  0  0  0  0
  -24.1637   14.7975   29.1659 C   0  0  0  0  0  0  0  0  0  0  0  0
  -23.3273   15.4951   29.2777 H   0  0  0  0  0  0  0  0  0  0  0  0
  -24.4507   14.7963   28.1076 H   0  0  0  0  0  0  0  0  0  0  0  0
  -25.3635   15.1995   30.0186 C   0  0  0  0  0  0  0  0  0  0  0  0
  -25.0359   15.7794   30.8893 H   0  0  0  0  0  0  0  0  0  0  0  0
  -26.0604   15.8262   29.4523 H   0  0  0  0  0  0  0  0  0  0  0  0
  -26.0171   13.8970   30.4814 C   0  0  0  0  0  0  0  0  0  0  0  0
  -27.0661   13.8353   30.1718 H   0  0  0  0  0  0  0  0  0  0  0  0
  -25.9952   13.8406   31.5765 H   0  0  0  0  0  0  0  0  0  0  0  0
  -25.1917   12.7661   29.8772 C   0  0  0  0  0  0  0  0  0  0  0  0
  -25.6438   12.4444   28.9305 H   0  0  0  0  0  0  0  0  0  0  0  0
  -25.1498   11.8905   30.5340 H   0  0  0  0  0  0  0  0  0  0  0  0
  -21.8119   13.0606   28.1834 C   0  0  0  0  0  0  0  0  0  0  0  0
  -21.4188   14.0312   28.3402 H   0  0  0  0  0  0  0  0  0  0  0  0
  -20.2598   12.6134   25.7297 H   0  0  0  0  0  0  0  0  0  0  0  0
  1  2  1  0
  1  3  1  0
  1  4  1  0
  1  5  1  0
  5  6  1  0
  5  8  1  0
  5 29  1  0
  6  7  1  0
  8  9  1  0
  8 27  2  0
  9 10  1  0
  9 11  2  0
 11 12  1  0
 12 13  1  0
 12 27  1  0
 13 14  1  0
 13 15  1  0
 13 24  1  0
 15 16  1  0
 15 17  1  0
 15 18  1  0
 18 19  1  0
 18 20  1  0
 18 21  1  0
 21 22  1  0
 21 23  1  0
 21 24  1  0
 24 25  1  0
 24 26  1  0
 27 28  1  0
M  END
$$$$
