F741_45
     RDKit          3D

 25 27  0  0  0  0  0  0  0  0999 V2000
  -22.0955   12.4418   29.5946 O   0  0  0  0  0  0  0  0  0  0  0  0
  -22.4103   12.9582   28.5240 C   0  0  0  0  0  0  0  0  0  0  0  0
  -21.4631   13.0690   27.5506 N   0  0  0  0  0  0  0  0  0  0  0  0
  -21.7841   13.4971   26.6667 H   0  0  0  0  0  0  0  0  0  0  0  0
  -20.1118   12.6360   27.6782 C   0  0  0  0  0  0  0  0  0  0  0  0
  -19.8816   12.2515   28.6691 H   0  0  0  0  0  0  0  0  0  0  0  0
  -19.0022   13.3646   26.9695 C   0  0  0  0  0  0  0  0  0  0  0  0
  -19.2531   14.1987   26.3255 H   0  0  0  0  0  0  0  0  0  0  0  0
  -18.0574   13.4715   27.4894 H   0  0  0  0  0  0  0  0  0  0  0  0
  -19.4027   11.9904   26.5201 C   0  0  0  0  0  0  0  0  0  0  0  0
  -18.7352   11.1654   26.7370 H   0  0  0  0  0  0  0  0  0  0  0  0
  -19.9349   11.8977   25.5803 H   0  0  0  0  0  0  0  0  0  0  0  0
  -23.7308   13.4558   28.2155 C   0  0  0  0  0  0  0  0  0  0  0  0
  -24.5827   14.0869   29.0870 C   0  0  0  0  0  0  0  0  0  0  0  0
  -25.6988   14.3662   28.3343 N   0  0  0  0  0  0  0  0  0  0  0  0
  -25.5880   13.9482   27.0454 N   0  0  0  0  0  0  0  0  0  0  0  0
  -24.3970   13.4021   26.9920 C   0  0  0  0  0  0  0  0  0  0  0  0
  -23.9963   12.9709   26.1083 H   0  0  0  0  0  0  0  0  0  0  0  0
  -26.8074   15.0185   28.8881 C   0  0  0  0  0  0  0  0  0  0  0  0
  -27.6197   15.1891   28.2306 H   0  0  0  0  0  0  0  0  0  0  0  0
  -26.7106   15.3561   30.2107 C   0  0  0  0  0  0  0  0  0  0  0  0
  -27.5074   15.8501   30.7024 H   0  0  0  0  0  0  0  0  0  0  0  0
  -25.5290   15.0479   30.9624 C   0  0  0  0  0  0  0  0  0  0  0  0
  -25.4776   15.3190   31.9857 H   0  0  0  0  0  0  0  0  0  0  0  0
  -24.4984   14.4402   30.4404 N   0  0  0  0  0  0  0  0  0  0  0  0
  1  2  2  0
  2  3  1  0
  2 13  1  0
  3  4  1  0
  3  5  1  0
  5  6  1  0
  5  7  1  0
  5 10  1  0
  7  8  1  0
  7  9  1  0
  7 10  1  0
 10 11  1  0
 10 12  1  0
 13 14  2  0
 13 17  1  0
 14 15  1  0
 14 25  1  0
 15 16  1  0
 15 19  1  0
 16 17  2  0
 17 18  1  0
 19 20  1  0
 19 21  2  0
 21 22  1  0
 21 23  1  0
 23 24  1  0
 23 25  2  0
M  END
$$$$
