F199_67
     RDKit          3D

 25 26  0  0  0  0  0  0  0  0999 V2000
  -21.4075   11.9683   29.1083 O   0  0  0  0  0  0  0  0  0  0  0  0
  -21.5860   12.4211   27.9796 C   0  0  0  0  0  0  0  0  0  0  0  0
  -22.7638   13.0684   27.6956 N   0  0  0  0  0  0  0  0  0  0  0  0
  -22.8248   13.4136   26.7275 H   0  0  0  0  0  0  0  0  0  0  0  0
  -23.8320   13.2913   28.5459 C   0  0  0  0  0  0  0  0  0  0  0  0
  -24.9537   13.9169   28.1346 C   0  0  0  0  0  0  0  0  0  0  0  0
  -25.2354   14.3237   27.2003 H   0  0  0  0  0  0  0  0  0  0  0  0
  -25.7550   13.9464   29.2282 N   0  0  0  0  0  0  0  0  0  0  0  0
  -27.0777   14.5045   29.3409 C   0  0  0  0  0  0  0  0  0  0  0  0
  -27.3701   14.9452   28.3848 H   0  0  0  0  0  0  0  0  0  0  0  0
  -27.0634   15.2734   30.1175 H   0  0  0  0  0  0  0  0  0  0  0  0
  -27.7692   13.7016   29.6086 H   0  0  0  0  0  0  0  0  0  0  0  0
  -25.1750   13.3617   30.3102 N   0  0  0  0  0  0  0  0  0  0  0  0
  -24.0007   12.9619   29.8903 C   0  0  0  0  0  0  0  0  0  0  0  0
  -23.2968   12.4617   30.5037 H   0  0  0  0  0  0  0  0  0  0  0  0
  -20.6343   12.3296   26.8908 C   0  0  0  0  0  0  0  0  0  0  0  0
  -20.1512   11.1847   26.4772 N   0  0  0  0  0  0  0  0  0  0  0  0
  -19.3145   11.4489   25.4778 O   0  0  0  0  0  0  0  0  0  0  0  0
  -19.2583   12.7646   25.2481 C   0  0  0  0  0  0  0  0  0  0  0  0
  -18.3707   13.2202   24.1667 C   0  0  0  0  0  0  0  0  0  0  0  0
  -18.3946   14.3099   24.0707 H   0  0  0  0  0  0  0  0  0  0  0  0
  -18.6790   12.7873   23.2102 H   0  0  0  0  0  0  0  0  0  0  0  0
  -17.3379   12.9187   24.3641 H   0  0  0  0  0  0  0  0  0  0  0  0
  -20.0800   13.3565   26.1244 C   0  0  0  0  0  0  0  0  0  0  0  0
  -20.2736   14.3935   26.2184 H   0  0  0  0  0  0  0  0  0  0  0  0
  1  2  2  0
  2  3  1  0
  2 16  1  0
  3  4  1  0
  3  5  1  0
  5  6  2  0
  5 14  1  0
  6  7  1  0
  6  8  1  0
  8  9  1  0
  8 13  1  0
  9 10  1  0
  9 11  1  0
  9 12  1  0
 13 14  2  0
 14 15  1  0
 16 17  2  0
 16 24  1  0
 17 18  1  0
 18 19  1  0
 19 20  1  0
 19 24  2  0
 20 21  1  0
 20 22  1  0
 20 23  1  0
 24 25  1  0
M  END
$$$$
