F367_9
     RDKit          3D

 31 32  0  0  0  0  0  0  0  0999 V2000
  -20.7594   13.7868   28.2422 O   0  0  0  0  0  0  0  0  0  0  0  0
  -20.7072   13.1162   27.2195 C   0  0  0  0  0  0  0  0  0  0  0  0
  -21.5202   12.0241   27.1585 N   0  0  0  0  0  0  0  0  0  0  0  0
  -21.5915   11.4784   26.2915 H   0  0  0  0  0  0  0  0  0  0  0  0
  -22.3370   11.6085   28.2809 C   0  0  0  0  0  0  0  0  0  0  0  0
  -21.7451   11.7097   29.1980 H   0  0  0  0  0  0  0  0  0  0  0  0
  -22.5902   10.5494   28.1580 H   0  0  0  0  0  0  0  0  0  0  0  0
  -23.5574   12.4563   28.3366 C   0  0  0  0  0  0  0  0  0  0  0  0
  -23.7561   13.5537   29.1044 C   0  0  0  0  0  0  0  0  0  0  0  0
  -23.1320   14.0487   29.8003 H   0  0  0  0  0  0  0  0  0  0  0  0
  -25.0084   13.9792   28.8253 N   0  0  0  0  0  0  0  0  0  0  0  0
  -25.7094   15.1175   29.3810 C   0  0  0  0  0  0  0  0  0  0  0  0
  -26.5456   14.7360   29.9774 H   0  0  0  0  0  0  0  0  0  0  0  0
  -25.0204   15.6313   30.0595 H   0  0  0  0  0  0  0  0  0  0  0  0
  -26.2150   16.0624   28.3059 C   0  0  0  0  0  0  0  0  0  0  0  0
  -26.9008   15.5499   27.6225 H   0  0  0  0  0  0  0  0  0  0  0  0
  -25.3881   16.4622   27.7098 H   0  0  0  0  0  0  0  0  0  0  0  0
  -26.7475   16.9039   28.7591 H   0  0  0  0  0  0  0  0  0  0  0  0
  -25.6119   13.1884   27.9024 N   0  0  0  0  0  0  0  0  0  0  0  0
  -24.7303   12.2704   27.6153 C   0  0  0  0  0  0  0  0  0  0  0  0
  -24.9085   11.4957   26.9129 H   0  0  0  0  0  0  0  0  0  0  0  0
  -19.8531   13.4708   26.0697 C   0  0  0  0  0  0  0  0  0  0  0  0
  -19.2446   14.7324   26.0650 C   0  0  0  0  0  0  0  0  0  0  0  0
  -19.4108   15.3989   26.8750 H   0  0  0  0  0  0  0  0  0  0  0  0
  -18.4559   15.1429   25.0699 N   0  0  0  0  0  0  0  0  0  0  0  0
  -18.2215   14.3359   24.0372 C   0  0  0  0  0  0  0  0  0  0  0  0
  -17.5901   14.6907   23.2616 H   0  0  0  0  0  0  0  0  0  0  0  0
  -18.7790   13.0621   23.9657 C   0  0  0  0  0  0  0  0  0  0  0  0
  -18.5699   12.4407   23.1346 H   0  0  0  0  0  0  0  0  0  0  0  0
  -19.6043   12.6147   24.9894 C   0  0  0  0  0  0  0  0  0  0  0  0
  -20.0236   11.6434   24.9471 H   0  0  0  0  0  0  0  0  0  0  0  0
  1  2  2  0
  2  3  1  0
  2 22  1  0
  3  4  1  0
  3  5  1  0
  5  6  1  0
  5  7  1  0
  5  8  1  0
  8  9  2  0
  8 20  1  0
  9 10  1  0
  9 11  1  0
 11 12  1  0
 11 19  1  0
 12 13  1  0
 12 14  1  0
 12 15  1  0
 15 16  1  0
 15 17  1  0
 15 18  1  0
 19 20  2  0
 20 21  1  0
 22 23  1  0
 22 30  2  0
 23 24  1  0
 23 25  2  0
 25 26  1  0
 26 27  1  0
 26 28  2  0
 28 29  1  0
 28 30  1  0
 30 31  1  0
M  END
$$$$
