F558_8
     RDKit          3D

 32 33  0  0  0  0  0  0  0  0999 V2000
  -18.0606   16.0752   26.9582 O   0  0  0  0  0  0  0  0  0  0  0  0
  -17.5284   15.2475   26.2334 C   0  0  0  0  0  0  0  0  0  0  0  0
  -16.3621   15.4262   25.5589 O   0  0  0  0  0  0  0  0  0  0  0  0
  -15.6349   16.5976   25.9362 C   0  0  0  0  0  0  0  0  0  0  0  0
  -15.3716   16.5596   26.9973 H   0  0  0  0  0  0  0  0  0  0  0  0
  -16.2189   17.4967   25.7129 H   0  0  0  0  0  0  0  0  0  0  0  0
  -14.7134   16.6272   25.3492 H   0  0  0  0  0  0  0  0  0  0  0  0
  -18.0245   14.0120   25.9506 N   0  0  0  0  0  0  0  0  0  0  0  0
  -17.4677   13.4950   25.2637 H   0  0  0  0  0  0  0  0  0  0  0  0
  -19.1786   13.3740   26.4547 C   0  0  0  0  0  0  0  0  0  0  0  0
  -20.1147   14.0174   27.2677 C   0  0  0  0  0  0  0  0  0  0  0  0
  -19.9834   15.0291   27.5466 H   0  0  0  0  0  0  0  0  0  0  0  0
  -21.2252   13.3132   27.7204 C   0  0  0  0  0  0  0  0  0  0  0  0
  -21.9345   13.8019   28.3388 H   0  0  0  0  0  0  0  0  0  0  0  0
  -21.4087   11.9732   27.3732 C   0  0  0  0  0  0  0  0  0  0  0  0
  -22.6077   11.2080   27.8869 C   0  0  0  0  0  0  0  0  0  0  0  0
  -22.2956   10.5577   28.7148 H   0  0  0  0  0  0  0  0  0  0  0  0
  -22.9683   10.5162   27.1141 H   0  0  0  0  0  0  0  0  0  0  0  0
  -23.7403   12.0979   28.3325 C   0  0  0  0  0  0  0  0  0  0  0  0
  -24.0471   12.2577   29.6787 C   0  0  0  0  0  0  0  0  0  0  0  0
  -23.4766   11.7682   30.4236 H   0  0  0  0  0  0  0  0  0  0  0  0
  -25.1141   13.0680   30.0536 C   0  0  0  0  0  0  0  0  0  0  0  0
  -25.3555   13.1943   31.0791 H   0  0  0  0  0  0  0  0  0  0  0  0
  -25.8624   13.7046   29.1554 N   0  0  0  0  0  0  0  0  0  0  0  0
  -25.5891   13.5644   27.8596 C   0  0  0  0  0  0  0  0  0  0  0  0
  -26.2025   14.0794   27.1632 H   0  0  0  0  0  0  0  0  0  0  0  0
  -24.5380   12.7696   27.4140 C   0  0  0  0  0  0  0  0  0  0  0  0
  -24.3537   12.6763   26.3747 H   0  0  0  0  0  0  0  0  0  0  0  0
  -20.4587   11.3376   26.5698 C   0  0  0  0  0  0  0  0  0  0  0  0
  -20.5834   10.3198   26.3025 H   0  0  0  0  0  0  0  0  0  0  0  0
  -19.3445   12.0325   26.1116 C   0  0  0  0  0  0  0  0  0  0  0  0
  -18.6299   11.5467   25.4991 H   0  0  0  0  0  0  0  0  0  0  0  0
  1  2  2  0
  2  3  1  0
  2  8  1  0
  3  4  1  0
  4  5  1  0
  4  6  1  0
  4  7  1  0
  8  9  1  0
  8 10  1  0
 10 11  1  0
 10 31  2  0
 11 12  1  0
 11 13  2  0
 13 14  1  0
 13 15  1  0
 15 16  1  0
 15 29  2  0
 16 17  1  0
 16 18  1  0
 16 19  1  0
 19 20  1  0
 19 27  2  0
 20 21  1  0
 20 22  2  0
 22 23  1  0
 22 24  1  0
 24 25  2  0
 25 26  1  0
 25 27  1  0
 27 28  1  0
 29 30  1  0
 29 31  1  0
 31 32  1  0
M  END
$$$$
