F274_90
     RDKit          3D

 26 27  0  0  0  0  0  0  0  0999 V2000
  -24.4966   14.8476   28.1652 O   0  0  0  0  0  0  0  0  0  0  0  0
  -24.1334   15.0185   29.3359 C   0  0  0  0  0  0  0  0  0  0  0  0
  -23.8973   13.9074   30.1568 N   0  0  0  0  0  0  0  0  0  0  0  0
  -24.0463   12.5495   29.6397 C   0  0  0  0  0  0  0  0  0  0  0  0
  -24.0230   11.8504   30.4841 H   0  0  0  0  0  0  0  0  0  0  0  0
  -25.0220   12.4434   29.1531 H   0  0  0  0  0  0  0  0  0  0  0  0
  -22.9509   12.2476   28.6918 C   0  0  0  0  0  0  0  0  0  0  0  0
  -22.9354   11.0336   28.1368 O   0  0  0  0  0  0  0  0  0  0  0  0
  -21.8819   10.9137   27.3185 N   0  0  0  0  0  0  0  0  0  0  0  0
  -21.2427   12.0316   27.3550 C   0  0  0  0  0  0  0  0  0  0  0  0
  -20.0191   12.2411   26.5539 C   0  0  0  0  0  0  0  0  0  0  0  0
  -19.5029   13.1584   26.8558 H   0  0  0  0  0  0  0  0  0  0  0  0
  -20.2681   12.3281   25.4909 H   0  0  0  0  0  0  0  0  0  0  0  0
  -19.3212   11.4068   26.6789 H   0  0  0  0  0  0  0  0  0  0  0  0
  -21.8835   12.9085   28.2183 C   0  0  0  0  0  0  0  0  0  0  0  0
  -21.5939   13.8979   28.4611 H   0  0  0  0  0  0  0  0  0  0  0  0
  -23.5097   14.0166   31.4768 N   0  0  0  0  0  0  0  0  0  0  0  0
  -23.3449   15.1862   32.0115 C   0  0  0  0  0  0  0  0  0  0  0  0
  -22.9250   15.2812   33.4511 C   0  0  0  0  0  0  0  0  0  0  0  0
  -21.9959   14.7205   33.5947 H   0  0  0  0  0  0  0  0  0  0  0  0
  -23.7051   14.8446   34.0826 H   0  0  0  0  0  0  0  0  0  0  0  0
  -22.7624   16.3181   33.7549 H   0  0  0  0  0  0  0  0  0  0  0  0
  -23.5563   16.3740   31.2528 C   0  0  0  0  0  0  0  0  0  0  0  0
  -23.4101   17.3152   31.7171 H   0  0  0  0  0  0  0  0  0  0  0  0
  -23.9394   16.2944   29.9461 C   0  0  0  0  0  0  0  0  0  0  0  0
  -24.1043   17.1570   29.3561 H   0  0  0  0  0  0  0  0  0  0  0  0
  1  2  2  0
  2  3  1  0
  2 25  1  0
  3  4  1  0
  3 17  1  0
  4  5  1  0
  4  6  1  0
  4  7  1  0
  7  8  1  0
  7 15  2  0
  8  9  1  0
  9 10  2  0
 10 11  1  0
 10 15  1  0
 11 12  1  0
 11 13  1  0
 11 14  1  0
 15 16  1  0
 17 18  2  0
 18 19  1  0
 18 23  1  0
 19 20  1  0
 19 21  1  0
 19 22  1  0
 23 24  1  0
 23 25  2  0
 25 26  1  0
M  END
$$$$
