F535_80
     RDKit          3D

 23 24  0  0  0  0  0  0  0  0999 V2000
  -20.8081   13.6360   27.5238 N   0  0  0  0  0  0  0  0  0  0  0  0
  -20.5600   14.3329   26.8050 H   0  0  0  0  0  0  0  0  0  0  0  0
  -20.9768   14.1981   28.3701 H   0  0  0  0  0  0  0  0  0  0  0  0
  -22.1057   13.0009   27.1229 C   0  0  0  0  0  0  0  0  0  0  0  0
  -22.8607   13.7925   27.1295 H   0  0  0  0  0  0  0  0  0  0  0  0
  -21.9706   12.6218   26.1042 H   0  0  0  0  0  0  0  0  0  0  0  0
  -22.4703   11.9071   28.0517 C   0  0  0  0  0  0  0  0  0  0  0  0
  -22.9052   12.0644   29.3089 N   0  0  0  0  0  0  0  0  0  0  0  0
  -23.1173   10.8223   29.8013 C   0  0  0  0  0  0  0  0  0  0  0  0
  -22.8248    9.9444   28.8693 N   0  0  0  0  0  0  0  0  0  0  0  0
  -22.4227   10.6360   27.7728 N   0  0  0  0  0  0  0  0  0  0  0  0
  -23.5868   10.6846   31.1419 C   0  0  0  0  0  0  0  0  0  0  0  0
  -23.7514    9.7121   31.5295 H   0  0  0  0  0  0  0  0  0  0  0  0
  -23.8143   11.7973   31.8997 C   0  0  0  0  0  0  0  0  0  0  0  0
  -24.1628   11.7112   32.8983 H   0  0  0  0  0  0  0  0  0  0  0  0
  -23.5817   13.0944   31.3438 C   0  0  0  0  0  0  0  0  0  0  0  0
  -23.7656   13.9492   31.9466 H   0  0  0  0  0  0  0  0  0  0  0  0
  -23.1307   13.2313   30.0602 C   0  0  0  0  0  0  0  0  0  0  0  0
  -22.9339   14.1499   29.5727 H   0  0  0  0  0  0  0  0  0  0  0  0
  -19.6823   12.6976   27.7413 C   0  0  0  0  0  0  0  0  0  0  0  0
  -19.4966   12.1604   26.8090 H   0  0  0  0  0  0  0  0  0  0  0  0
  -19.9568   12.0128   28.5470 H   0  0  0  0  0  0  0  0  0  0  0  0
  -18.8095   13.2910   28.0237 H   0  0  0  0  0  0  0  0  0  0  0  0
  1  2  1  0
  1  3  1  0
  1  4  1  0
  1 20  1  0
  4  5  1  0
  4  6  1  0
  4  7  1  0
  7  8  1  0
  7 11  2  0
  8  9  1  0
  8 18  1  0
  9 10  2  0
  9 12  1  0
 10 11  1  0
 12 13  1  0
 12 14  2  0
 14 15  1  0
 14 16  1  0
 16 17  1  0
 16 18  2  0
 18 19  1  0
 20 21  1  0
 20 22  1  0
 20 23  1  0
M  END
$$$$
