F501_75
     RDKit          3D

 23 24  0  0  0  0  0  0  0  0999 V2000
  -16.1581   17.3298   26.6801 C   0  0  0  0  0  0  0  0  0  0  0  0
  -16.7804   16.5582   27.1408 H   0  0  0  0  0  0  0  0  0  0  0  0
  -15.3741   17.6428   27.3735 H   0  0  0  0  0  0  0  0  0  0  0  0
  -15.7182   16.9387   25.7597 H   0  0  0  0  0  0  0  0  0  0  0  0
  -16.9624   18.4773   26.3596 N   0  0  0  0  0  0  0  0  0  0  0  0
  -16.4928   19.4042   25.5115 N   0  0  0  0  0  0  0  0  0  0  0  0
  -17.4017   20.3438   25.4006 N   0  0  0  0  0  0  0  0  0  0  0  0
  -18.4393   19.9854   26.1846 C   0  0  0  0  0  0  0  0  0  0  0  0
  -18.1818   18.8122   26.7845 C   0  0  0  0  0  0  0  0  0  0  0  0
  -19.0813   18.0694   27.7055 C   0  0  0  0  0  0  0  0  0  0  0  0
  -19.5002   17.2163   27.1563 H   0  0  0  0  0  0  0  0  0  0  0  0
  -18.5160   17.6579   28.5473 H   0  0  0  0  0  0  0  0  0  0  0  0
  -20.2461   18.9804   28.1646 C   0  0  0  0  0  0  0  0  0  0  0  0
  -19.8687   19.7476   29.4358 C   0  0  0  0  0  0  0  0  0  0  0  0
  -20.6126   19.6020   30.4312 O   0  0  0  0  0  0  0  0  0  0  0  0
  -18.8721   20.5003   29.3896 O   0  0  0  0  0  0  0  0  0  0  0  0
  -20.7722   19.8827   27.0183 C   0  0  0  0  0  0  0  0  0  0  0  0
  -21.1925   19.2309   26.2399 H   0  0  0  0  0  0  0  0  0  0  0  0
  -21.5957   20.5180   27.3652 H   0  0  0  0  0  0  0  0  0  0  0  0
  -19.6789   20.7685   26.3798 C   0  0  0  0  0  0  0  0  0  0  0  0
  -19.4633   21.6278   27.0249 H   0  0  0  0  0  0  0  0  0  0  0  0
  -20.0384   21.1619   25.4221 H   0  0  0  0  0  0  0  0  0  0  0  0
  -21.0726   18.3272   28.4766 H   0  0  0  0  0  0  0  0  0  0  0  0
  1  2  1  0
  1  3  1  0
  1  4  1  0
  1  5  1  0
  5  6  1  0
  5  9  1  0
  6  7  2  0
  7  8  1  0
  8  9  2  0
  8 20  1  0
  9 10  1  0
 10 11  1  0
 10 12  1  0
 10 13  1  0
 13 14  1  0
 13 17  1  0
 13 23  1  0
 14 15  1  0
 14 16  2  0
 17 18  1  0
 17 19  1  0
 17 20  1  0
 20 21  1  0
 20 22  1  0
M  END
$$$$
