F600_34
     RDKit          3D

 16 16  0  0  0  0  0  0  0  0999 V2000
  -21.7769   12.2238   27.0856 O   0  0  0  0  0  0  0  0  0  0  0  0
  -20.7230   13.0154   27.6339 C   0  0  0  0  0  0  0  0  0  0  0  0
  -21.1467   13.8863   28.1491 H   0  0  0  0  0  0  0  0  0  0  0  0
  -20.1448   12.4256   28.3543 H   0  0  0  0  0  0  0  0  0  0  0  0
  -19.8604   13.4650   26.5042 C   0  0  0  0  0  0  0  0  0  0  0  0
  -19.0538   12.3313   25.5051 S   0  0  0  0  0  0  0  0  0  0  0  0
  -18.4196   13.6721   24.6725 C   0  0  0  0  0  0  0  0  0  0  0  0
  -17.5962   13.4927   23.6259 N   0  0  0  0  0  0  0  0  0  0  0  0
  -17.3300   12.5725   23.2987 H   0  0  0  0  0  0  0  0  0  0  0  0
  -17.2183   14.2915   23.1307 H   0  0  0  0  0  0  0  0  0  0  0  0
  -18.7792   14.8356   25.1165 N   0  0  0  0  0  0  0  0  0  0  0  0
  -19.6282   14.7054   26.1959 N   0  0  0  0  0  0  0  0  0  0  0  0
  -22.7049   11.8243   28.0843 C   0  0  0  0  0  0  0  0  0  0  0  0
  -23.4854   11.2238   27.6087 H   0  0  0  0  0  0  0  0  0  0  0  0
  -23.1710   12.6995   28.5467 H   0  0  0  0  0  0  0  0  0  0  0  0
  -22.2096   11.2136   28.8452 H   0  0  0  0  0  0  0  0  0  0  0  0
  1  2  1  0
  1 13  1  0
  2  3  1  0
  2  4  1  0
  2  5  1  0
  5  6  1  0
  5 12  2  0
  6  7  1  0
  7  8  1  0
  7 11  2  0
  8  9  1  0
  8 10  1  0
 11 12  1  0
 13 14  1  0
 13 15  1  0
 13 16  1  0
M  END
$$$$
