F14_53
     RDKit          3D

 19 19  0  0  0  0  0  0  0  0999 V2000
  -18.5074   14.8376   26.8262 Br  0  0  0  0  0  0  0  0  0  0  0  0
  -19.6572   13.3718   26.9410 C   0  0  0  0  0  0  0  0  0  0  0  0
  -20.8234   13.2801   27.6154 C   0  0  0  0  0  0  0  0  0  0  0  0
  -21.3439   13.9750   28.2222 H   0  0  0  0  0  0  0  0  0  0  0  0
  -21.2786   12.0271   27.3945 N   0  0  0  0  0  0  0  0  0  0  0  0
  -22.4995   11.4186   27.8843 C   0  0  0  0  0  0  0  0  0  0  0  0
  -22.5811   10.4318   27.4153 H   0  0  0  0  0  0  0  0  0  0  0  0
  -22.3783   11.2823   28.9640 H   0  0  0  0  0  0  0  0  0  0  0  0
  -23.7195   12.2762   27.5846 C   0  0  0  0  0  0  0  0  0  0  0  0
  -24.6449   11.6933   27.6601 H   0  0  0  0  0  0  0  0  0  0  0  0
  -23.6358   12.6790   26.5693 H   0  0  0  0  0  0  0  0  0  0  0  0
  -23.7584   13.3722   28.5029 O   0  0  0  0  0  0  0  0  0  0  0  0
  -24.8997   14.1934   28.2941 C   0  0  0  0  0  0  0  0  0  0  0  0
  -24.8675   15.0169   29.0121 H   0  0  0  0  0  0  0  0  0  0  0  0
  -25.8173   13.6214   28.4590 H   0  0  0  0  0  0  0  0  0  0  0  0
  -24.8919   14.6099   27.2824 H   0  0  0  0  0  0  0  0  0  0  0  0
  -20.4324   11.3120   26.6016 N   0  0  0  0  0  0  0  0  0  0  0  0
  -19.4547   12.1385   26.3309 C   0  0  0  0  0  0  0  0  0  0  0  0
  -18.6235   11.8819   25.7257 H   0  0  0  0  0  0  0  0  0  0  0  0
  1  2  1  0
  2  3  2  0
  2 18  1  0
  3  4  1  0
  3  5  1  0
  5  6  1  0
  5 17  1  0
  6  7  1  0
  6  8  1  0
  6  9  1  0
  9 10  1  0
  9 11  1  0
  9 12  1  0
 12 13  1  0
 13 14  1  0
 13 15  1  0
 13 16  1  0
 17 18  2  0
 18 19  1  0
M  END
$$$$
