F362_60
     RDKit          3D

 30 31  0  0  0  0  0  0  0  0999 V2000
  -24.9074   14.7507   30.3412 N   0  0  0  0  0  0  0  0  0  0  0  0
  -24.4468   16.1525   30.3574 C   0  0  0  0  0  0  0  0  0  0  0  0
  -23.4425   16.2528   29.9367 H   0  0  0  0  0  0  0  0  0  0  0  0
  -25.0767   16.7574   29.6927 H   0  0  0  0  0  0  0  0  0  0  0  0
  -24.5353   16.7380   31.7588 C   0  0  0  0  0  0  0  0  0  0  0  0
  -23.9603   16.1581   32.4857 H   0  0  0  0  0  0  0  0  0  0  0  0
  -25.5734   16.7613   32.1080 H   0  0  0  0  0  0  0  0  0  0  0  0
  -24.1560   17.7652   31.7647 H   0  0  0  0  0  0  0  0  0  0  0  0
  -26.3637   14.6156   30.5455 C   0  0  0  0  0  0  0  0  0  0  0  0
  -26.5892   14.2686   31.5596 H   0  0  0  0  0  0  0  0  0  0  0  0
  -26.8514   15.5956   30.4646 H   0  0  0  0  0  0  0  0  0  0  0  0
  -26.9714   13.6780   29.5115 C   0  0  0  0  0  0  0  0  0  0  0  0
  -26.5448   12.6727   29.5794 H   0  0  0  0  0  0  0  0  0  0  0  0
  -26.7958   14.0453   28.4956 H   0  0  0  0  0  0  0  0  0  0  0  0
  -28.0524   13.5989   29.6627 H   0  0  0  0  0  0  0  0  0  0  0  0
  -24.0399   13.6175   30.1479 C   0  0  0  0  0  0  0  0  0  0  0  0
  -24.1826   12.4048   30.9158 N   0  0  0  0  0  0  0  0  0  0  0  0
  -25.0705   12.0892   31.8843 N   0  0  0  0  0  0  0  0  0  0  0  0
  -24.7205   10.8809   32.2016 C   0  0  0  0  0  0  0  0  0  0  0  0
  -25.2281   10.3261   32.9523 H   0  0  0  0  0  0  0  0  0  0  0  0
  -23.6822   10.3757   31.5272 N   0  0  0  0  0  0  0  0  0  0  0  0
  -23.3443   11.3360   30.7159 C   0  0  0  0  0  0  0  0  0  0  0  0
  -22.3204   11.3458   29.7840 N   0  0  0  0  0  0  0  0  0  0  0  0
  -22.1540   12.4120   29.0715 C   0  0  0  0  0  0  0  0  0  0  0  0
  -21.0492   12.4477   28.0516 C   0  0  0  0  0  0  0  0  0  0  0  0
  -21.0164   13.4065   27.5290 H   0  0  0  0  0  0  0  0  0  0  0  0
  -21.2077   11.6504   27.3200 H   0  0  0  0  0  0  0  0  0  0  0  0
  -20.0904   12.2850   28.5531 H   0  0  0  0  0  0  0  0  0  0  0  0
  -23.0162   13.6141   29.2184 C   0  0  0  0  0  0  0  0  0  0  0  0
  -22.8336   14.4623   28.6203 H   0  0  0  0  0  0  0  0  0  0  0  0
  1  2  1  0
  1  9  1  0
  1 16  1  0
  2  3  1  0
  2  4  1  0
  2  5  1  0
  5  6  1  0
  5  7  1  0
  5  8  1  0
  9 10  1  0
  9 11  1  0
  9 12  1  0
 12 13  1  0
 12 14  1  0
 12 15  1  0
 16 17  1  0
 16 29  2  0
 17 18  1  0
 17 22  1  0
 18 19  2  0
 19 20  1  0
 19 21  1  0
 21 22  2  0
 22 23  1  0
 23 24  2  0
 24 25  1  0
 24 29  1  0
 25 26  1  0
 25 27  1  0
 25 28  1  0
 29 30  1  0
M  END
$$$$
