F374_3
     RDKit          3D

 18 18  0  0  0  0  0  0  0  0999 V2000
  -21.8901   13.4457   28.8985 O   0  0  0  0  0  0  0  0  0  0  0  0
  -22.2802   13.1494   27.7704 C   0  0  0  0  0  0  0  0  0  0  0  0
  -21.3619   12.6133   26.9096 N   0  0  0  0  0  0  0  0  0  0  0  0
  -21.7145   12.3126   25.9899 H   0  0  0  0  0  0  0  0  0  0  0  0
  -19.9636   12.4380   27.2410 C   0  0  0  0  0  0  0  0  0  0  0  0
  -19.8896   12.2043   28.3089 H   0  0  0  0  0  0  0  0  0  0  0  0
  -19.5895   11.5757   26.6799 H   0  0  0  0  0  0  0  0  0  0  0  0
  -19.1516   13.6758   26.9136 C   0  0  0  0  0  0  0  0  0  0  0  0
  -18.0994   13.5215   27.1704 H   0  0  0  0  0  0  0  0  0  0  0  0
  -19.2140   13.9135   25.8465 H   0  0  0  0  0  0  0  0  0  0  0  0
  -19.5196   14.5432   27.4715 H   0  0  0  0  0  0  0  0  0  0  0  0
  -23.6270   13.2902   27.2746 C   0  0  0  0  0  0  0  0  0  0  0  0
  -24.0544   12.7469   26.0977 N   0  0  0  0  0  0  0  0  0  0  0  0
  -25.3165   13.0632   25.9511 N   0  0  0  0  0  0  0  0  0  0  0  0
  -25.6830   13.7925   27.0157 N   0  0  0  0  0  0  0  0  0  0  0  0
  -26.6415   14.1679   27.1415 H   0  0  0  0  0  0  0  0  0  0  0  0
  -24.6636   13.9494   27.8486 C   0  0  0  0  0  0  0  0  0  0  0  0
  -24.7315   14.4920   28.7560 H   0  0  0  0  0  0  0  0  0  0  0  0
  1  2  2  0
  2  3  1  0
  2 12  1  0
  3  4  1  0
  3  5  1  0
  5  6  1  0
  5  7  1  0
  5  8  1  0
  8  9  1  0
  8 10  1  0
  8 11  1  0
 12 13  1  0
 12 17  2  0
 13 14  2  0
 14 15  1  0
 15 16  1  0
 15 17  1  0
 17 18  1  0
M  END
$$$$
