F763_73
     RDKit          3D

 19 19  0  0  0  0  0  0  0  0999 V2000
  -23.6983   11.8798   28.8238 Br  0  0  0  0  0  0  0  0  0  0  0  0
  -22.0865   12.2453   27.9486 C   0  0  0  0  0  0  0  0  0  0  0  0
  -21.4816   11.3044   27.1725 C   0  0  0  0  0  0  0  0  0  0  0  0
  -21.9008   10.3431   27.0422 H   0  0  0  0  0  0  0  0  0  0  0  0
  -20.2500   11.5862   26.5075 C   0  0  0  0  0  0  0  0  0  0  0  0
  -19.6396   10.7700   25.8051 O   0  0  0  0  0  0  0  0  0  0  0  0
  -19.6982   12.8609   26.6701 N   0  0  0  0  0  0  0  0  0  0  0  0
  -18.4402   13.1978   26.0014 C   0  0  0  0  0  0  0  0  0  0  0  0
  -17.7799   13.7141   26.7090 H   0  0  0  0  0  0  0  0  0  0  0  0
  -17.9080   12.2798   25.7196 H   0  0  0  0  0  0  0  0  0  0  0  0
  -18.6568   14.0829   24.7753 C   0  0  0  0  0  0  0  0  0  0  0  0
  -19.2880   14.9472   25.0060 H   0  0  0  0  0  0  0  0  0  0  0  0
  -19.1490   13.5173   23.9772 H   0  0  0  0  0  0  0  0  0  0  0  0
  -17.4094   14.5515   24.2763 O   0  0  0  0  0  0  0  0  0  0  0  0
  -16.9937   15.0783   24.9823 H   0  0  0  0  0  0  0  0  0  0  0  0
  -20.3142   13.8191   27.4675 C   0  0  0  0  0  0  0  0  0  0  0  0
  -19.8158   14.7550   27.5379 H   0  0  0  0  0  0  0  0  0  0  0  0
  -21.4876   13.5276   28.0987 C   0  0  0  0  0  0  0  0  0  0  0  0
  -21.9651   14.2517   28.7079 H   0  0  0  0  0  0  0  0  0  0  0  0
  1  2  1  0
  2  3  2  0
  2 18  1  0
  3  4  1  0
  3  5  1  0
  5  6  2  0
  5  7  1  0
  7  8  1  0
  7 16  1  0
  8  9  1  0
  8 10  1  0
  8 11  1  0
 11 12  1  0
 11 13  1  0
 11 14  1  0
 14 15  1  0
 16 17  1  0
 16 18  2  0
 18 19  1  0
M  END
$$$$
