F666_45
     RDKit          3D

 35 37  0  0  0  0  0  0  0  0999 V2000
  -14.3261   19.6232   26.2172 F   0  0  0  0  0  0  0  0  0  0  0  0
  -15.2443   18.6529   26.1052 C   0  0  0  0  0  0  0  0  0  0  0  0
  -14.8417   17.3295   26.2346 C   0  0  0  0  0  0  0  0  0  0  0  0
  -13.8248   17.0995   26.4193 H   0  0  0  0  0  0  0  0  0  0  0  0
  -15.7935   16.3209   26.1173 C   0  0  0  0  0  0  0  0  0  0  0  0
  -15.4913   15.3151   26.2153 H   0  0  0  0  0  0  0  0  0  0  0  0
  -17.1369   16.6490   25.8610 C   0  0  0  0  0  0  0  0  0  0  0  0
  -18.0883   15.6458   25.7254 N   0  0  0  0  0  0  0  0  0  0  0  0
  -19.4119   15.7167   26.3623 C   0  0  0  0  0  0  0  0  0  0  0  0
  -19.5311   16.5857   27.0170 H   0  0  0  0  0  0  0  0  0  0  0  0
  -20.1632   15.8221   25.5697 H   0  0  0  0  0  0  0  0  0  0  0  0
  -19.6933   14.4305   27.1555 C   0  0  0  0  0  0  0  0  0  0  0  0
  -20.7082   14.4608   27.5586 H   0  0  0  0  0  0  0  0  0  0  0  0
  -19.0048   14.3560   28.0053 H   0  0  0  0  0  0  0  0  0  0  0  0
  -19.4756   13.2387   26.3243 N   0  0  0  0  0  0  0  0  0  0  0  0
  -20.4001   12.2409   26.1236 C   0  0  0  0  0  0  0  0  0  0  0  0
  -20.0970   11.2945   25.4206 O   0  0  0  0  0  0  0  0  0  0  0  0
  -21.7304   12.3370   26.7654 C   0  0  0  0  0  0  0  0  0  0  0  0
  -22.3749   13.0967   26.3338 H   0  0  0  0  0  0  0  0  0  0  0  0
  -21.8662   12.1481   28.2599 C   0  0  0  0  0  0  0  0  0  0  0  0
  -20.9741   11.9200   28.8325 H   0  0  0  0  0  0  0  0  0  0  0  0
  -22.5826   12.7681   28.7849 H   0  0  0  0  0  0  0  0  0  0  0  0
  -22.3902   11.0991   27.3274 C   0  0  0  0  0  0  0  0  0  0  0  0
  -21.8538   10.1576   27.2800 H   0  0  0  0  0  0  0  0  0  0  0  0
  -23.4643   11.0048   27.2214 H   0  0  0  0  0  0  0  0  0  0  0  0
  -18.1479   13.1790   25.7000 C   0  0  0  0  0  0  0  0  0  0  0  0
  -17.4217   13.0659   26.5132 H   0  0  0  0  0  0  0  0  0  0  0  0
  -18.0487   12.3051   25.0485 H   0  0  0  0  0  0  0  0  0  0  0  0
  -17.8408   14.4550   24.8966 C   0  0  0  0  0  0  0  0  0  0  0  0
  -18.4834   14.5027   24.0097 H   0  0  0  0  0  0  0  0  0  0  0  0
  -16.8021   14.3912   24.5541 H   0  0  0  0  0  0  0  0  0  0  0  0
  -17.5192   17.9965   25.7563 C   0  0  0  0  0  0  0  0  0  0  0  0
  -18.5355   18.2508   25.6104 H   0  0  0  0  0  0  0  0  0  0  0  0
  -16.5663   19.0042   25.8708 C   0  0  0  0  0  0  0  0  0  0  0  0
  -16.8398   20.0234   25.7909 H   0  0  0  0  0  0  0  0  0  0  0  0
  1  2  1  0
  2  3  1  0
  2 34  2  0
  3  4  1  0
  3  5  2  0
  5  6  1  0
  5  7  1  0
  7  8  1  0
  7 32  2  0
  8  9  1  0
  8 29  1  0
  9 10  1  0
  9 11  1  0
  9 12  1  0
 12 13  1  0
 12 14  1  0
 12 15  1  0
 15 16  1  0
 15 26  1  0
 16 17  2  0
 16 18  1  0
 18 19  1  0
 18 20  1  0
 18 23  1  0
 20 21  1  0
 20 22  1  0
 20 23  1  0
 23 24  1  0
 23 25  1  0
 26 27  1  0
 26 28  1  0
 26 29  1  0
 29 30  1  0
 29 31  1  0
 32 33  1  0
 32 34  1  0
 34 35  1  0
M  END
$$$$
