F229_6
     RDKit          3D

 27 28  0  0  0  0  0  0  0  0999 V2000
  -24.1901   12.8749   26.0585 F   0  0  0  0  0  0  0  0  0  0  0  0
  -23.7844   12.7005   27.3265 C   0  0  0  0  0  0  0  0  0  0  0  0
  -22.4172   12.5536   27.6352 C   0  0  0  0  0  0  0  0  0  0  0  0
  -21.4046   12.5813   26.6846 N   0  0  0  0  0  0  0  0  0  0  0  0
  -21.5868   12.1907   25.7676 H   0  0  0  0  0  0  0  0  0  0  0  0
  -20.0843   13.1449   26.9053 C   0  0  0  0  0  0  0  0  0  0  0  0
  -20.1828   14.1144   27.4089 H   0  0  0  0  0  0  0  0  0  0  0  0
  -19.5111   12.4903   27.5727 H   0  0  0  0  0  0  0  0  0  0  0  0
  -19.2876   13.3436   25.6521 C   0  0  0  0  0  0  0  0  0  0  0  0
  -18.4979   14.4450   25.3279 C   0  0  0  0  0  0  0  0  0  0  0  0
  -18.2577   15.6749   26.1202 C   0  0  0  0  0  0  0  0  0  0  0  0
  -17.9212   15.4214   27.1310 H   0  0  0  0  0  0  0  0  0  0  0  0
  -19.1789   16.2615   26.2010 H   0  0  0  0  0  0  0  0  0  0  0  0
  -17.4918   16.3095   25.6620 H   0  0  0  0  0  0  0  0  0  0  0  0
  -17.9348   14.2880   24.1630 N   0  0  0  0  0  0  0  0  0  0  0  0
  -18.3569   13.0755   23.7283 N   0  0  0  0  0  0  0  0  0  0  0  0
  -18.0677   12.6741   22.8166 H   0  0  0  0  0  0  0  0  0  0  0  0
  -19.1778   12.4793   24.6166 C   0  0  0  0  0  0  0  0  0  0  0  0
  -19.6011   11.5241   24.4473 H   0  0  0  0  0  0  0  0  0  0  0  0
  -22.0501   12.3844   28.9714 C   0  0  0  0  0  0  0  0  0  0  0  0
  -21.0280   12.2870   29.2280 H   0  0  0  0  0  0  0  0  0  0  0  0
  -23.0274   12.3451   29.9647 C   0  0  0  0  0  0  0  0  0  0  0  0
  -22.7431   12.2130   30.9780 H   0  0  0  0  0  0  0  0  0  0  0  0
  -24.3795   12.4803   29.6413 C   0  0  0  0  0  0  0  0  0  0  0  0
  -25.1136   12.4490   30.4057 H   0  0  0  0  0  0  0  0  0  0  0  0
  -24.7596   12.6611   28.3131 C   0  0  0  0  0  0  0  0  0  0  0  0
  -25.7819   12.7715   28.0549 H   0  0  0  0  0  0  0  0  0  0  0  0
  1  2  1  0
  2  3  1  0
  2 26  2  0
  3  4  1  0
  3 20  2  0
  4  5  1  0
  4  6  1  0
  6  7  1  0
  6  8  1  0
  6  9  1  0
  9 10  1  0
  9 18  2  0
 10 11  1  0
 10 15  2  0
 11 12  1  0
 11 13  1  0
 11 14  1  0
 15 16  1  0
 16 17  1  0
 16 18  1  0
 18 19  1  0
 20 21  1  0
 20 22  1  0
 22 23  1  0
 22 24  2  0
 24 25  1  0
 24 26  1  0
 26 27  1  0
M  END
$$$$
