F709_56
     RDKit          3D

 29 30  0  0  0  0  0  0  0  0999 V2000
  -16.2251   14.9087   25.0122 O   0  0  0  0  0  0  0  0  0  0  0  0
  -17.2443   15.3120   25.5479 C   0  0  0  0  0  0  0  0  0  0  0  0
  -17.3220   16.5838   25.9454 N   0  0  0  0  0  0  0  0  0  0  0  0
  -18.0963   17.1126   25.5291 H   0  0  0  0  0  0  0  0  0  0  0  0
  -17.0671   16.7709   26.9183 H   0  0  0  0  0  0  0  0  0  0  0  0
  -18.3523   14.5357   25.7650 N   0  0  0  0  0  0  0  0  0  0  0  0
  -18.4215   13.2082   25.1478 C   0  0  0  0  0  0  0  0  0  0  0  0
  -17.5095   12.9784   24.5869 H   0  0  0  0  0  0  0  0  0  0  0  0
  -19.2506   13.2327   24.4302 H   0  0  0  0  0  0  0  0  0  0  0  0
  -18.6698   12.1273   26.1996 C   0  0  0  0  0  0  0  0  0  0  0  0
  -17.8190   12.0749   26.8896 H   0  0  0  0  0  0  0  0  0  0  0  0
  -18.7542   11.1503   25.7157 H   0  0  0  0  0  0  0  0  0  0  0  0
  -19.8519   12.4356   27.0186 N   0  0  0  0  0  0  0  0  0  0  0  0
  -20.8577   11.4881   27.1821 C   0  0  0  0  0  0  0  0  0  0  0  0
  -20.8526   10.5428   26.3929 O   0  0  0  0  0  0  0  0  0  0  0  0
  -21.8552   11.6170   28.2210 C   0  0  0  0  0  0  0  0  0  0  0  0
  -21.4973   11.9514   29.4973 O   0  0  0  0  0  0  0  0  0  0  0  0
  -22.6121   11.9439   30.2609 C   0  0  0  0  0  0  0  0  0  0  0  0
  -22.5568   12.1893   31.2906 H   0  0  0  0  0  0  0  0  0  0  0  0
  -23.6781   11.5935   29.5050 C   0  0  0  0  0  0  0  0  0  0  0  0
  -24.6785   11.5033   29.8402 H   0  0  0  0  0  0  0  0  0  0  0  0
  -23.1956   11.3660   28.1941 C   0  0  0  0  0  0  0  0  0  0  0  0
  -23.7472   11.0607   27.3416 H   0  0  0  0  0  0  0  0  0  0  0  0
  -19.8431   13.7776   27.6173 C   0  0  0  0  0  0  0  0  0  0  0  0
  -20.8058   14.0245   28.0683 H   0  0  0  0  0  0  0  0  0  0  0  0
  -19.0810   13.7684   28.4050 H   0  0  0  0  0  0  0  0  0  0  0  0
  -19.5237   14.8751   26.5852 C   0  0  0  0  0  0  0  0  0  0  0  0
  -19.3908   15.8194   27.1176 H   0  0  0  0  0  0  0  0  0  0  0  0
  -20.3666   14.9932   25.8935 H   0  0  0  0  0  0  0  0  0  0  0  0
  1  2  2  0
  2  3  1  0
  2  6  1  0
  3  4  1  0
  3  5  1  0
  6  7  1  0
  6 27  1  0
  7  8  1  0
  7  9  1  0
  7 10  1  0
 10 11  1  0
 10 12  1  0
 10 13  1  0
 13 14  1  0
 13 24  1  0
 14 15  2  0
 14 16  1  0
 16 17  1  0
 16 22  2  0
 17 18  1  0
 18 19  1  0
 18 20  2  0
 20 21  1  0
 20 22  1  0
 22 23  1  0
 24 25  1  0
 24 26  1  0
 24 27  1  0
 27 28  1  0
 27 29  1  0
M  END
$$$$
