F96_43
     RDKit          3D

 19 19  0  0  0  0  0  0  0  0999 V2000
  -20.6094   13.4586   28.2921 O   0  0  0  0  0  0  0  0  0  0  0  0
  -21.2020   12.6462   27.5966 C   0  0  0  0  0  0  0  0  0  0  0  0
  -20.5674   11.8321   26.7652 N   0  0  0  0  0  0  0  0  0  0  0  0
  -21.0859   11.1830   26.1987 H   0  0  0  0  0  0  0  0  0  0  0  0
  -19.1262   11.8424   26.6293 C   0  0  0  0  0  0  0  0  0  0  0  0
  -18.6846   11.9847   27.6216 H   0  0  0  0  0  0  0  0  0  0  0  0
  -18.8003   10.8671   26.2519 H   0  0  0  0  0  0  0  0  0  0  0  0
  -18.7365   12.9386   25.7040 C   0  0  0  0  0  0  0  0  0  0  0  0
  -18.0437   14.0607   26.0106 C   0  0  0  0  0  0  0  0  0  0  0  0
  -17.6371   14.4111   26.9244 H   0  0  0  0  0  0  0  0  0  0  0  0
  -17.9301   14.7488   24.8545 N   0  0  0  0  0  0  0  0  0  0  0  0
  -17.4469   15.6599   24.7446 H   0  0  0  0  0  0  0  0  0  0  0  0
  -18.5344   14.1071   23.8207 N   0  0  0  0  0  0  0  0  0  0  0  0
  -19.0171   13.0135   24.3434 C   0  0  0  0  0  0  0  0  0  0  0  0
  -19.5552   12.2906   23.7829 H   0  0  0  0  0  0  0  0  0  0  0  0
  -22.7007   12.5268   27.6062 C   0  0  0  0  0  0  0  0  0  0  0  0
  -23.0196   11.5246   27.3063 H   0  0  0  0  0  0  0  0  0  0  0  0
  -23.1223   13.2595   26.9141 H   0  0  0  0  0  0  0  0  0  0  0  0
  -23.0734   12.7209   28.6158 H   0  0  0  0  0  0  0  0  0  0  0  0
  1  2  2  0
  2  3  1  0
  2 16  1  0
  3  4  1  0
  3  5  1  0
  5  6  1  0
  5  7  1  0
  5  8  1  0
  8  9  2  0
  8 14  1  0
  9 10  1  0
  9 11  1  0
 11 12  1  0
 11 13  1  0
 13 14  2  0
 14 15  1  0
 16 17  1  0
 16 18  1  0
 16 19  1  0
M  END
$$$$
