F710_39
     RDKit          3D

 30 31  0  0  0  0  0  0  0  0999 V2000
  -24.3612   11.1978   30.2595 F   0  0  0  0  0  0  0  0  0  0  0  0
  -23.4670   11.6820   29.3855 C   0  0  0  0  0  0  0  0  0  0  0  0
  -22.1284   11.7365   29.7551 C   0  0  0  0  0  0  0  0  0  0  0  0
  -21.8265   11.4030   30.7135 H   0  0  0  0  0  0  0  0  0  0  0  0
  -21.2013   12.2402   28.8484 C   0  0  0  0  0  0  0  0  0  0  0  0
  -20.1794   12.3106   29.1118 H   0  0  0  0  0  0  0  0  0  0  0  0
  -21.6244   12.6769   27.5854 C   0  0  0  0  0  0  0  0  0  0  0  0
  -20.6998   13.1814   26.6800 N   0  0  0  0  0  0  0  0  0  0  0  0
  -19.7954   14.2875   27.0222 C   0  0  0  0  0  0  0  0  0  0  0  0
  -20.0720   15.1689   26.4309 H   0  0  0  0  0  0  0  0  0  0  0  0
  -19.8529   14.5652   28.0805 H   0  0  0  0  0  0  0  0  0  0  0  0
  -18.3447   13.8812   26.7190 C   0  0  0  0  0  0  0  0  0  0  0  0
  -18.0354   13.0745   27.3947 H   0  0  0  0  0  0  0  0  0  0  0  0
  -17.6784   14.7302   26.9032 H   0  0  0  0  0  0  0  0  0  0  0  0
  -18.1900   13.3636   25.3532 N   0  0  0  0  0  0  0  0  0  0  0  0
  -17.2517   13.9292   24.5338 C   0  0  0  0  0  0  0  0  0  0  0  0
  -16.6474   14.9551   24.7970 O   0  0  0  0  0  0  0  0  0  0  0  0
  -16.9973   13.2851   23.3921 N   0  0  0  0  0  0  0  0  0  0  0  0
  -17.7841   13.2613   22.7348 H   0  0  0  0  0  0  0  0  0  0  0  0
  -16.0499   13.3846   23.0213 H   0  0  0  0  0  0  0  0  0  0  0  0
  -19.1179   12.2688   25.0171 C   0  0  0  0  0  0  0  0  0  0  0  0
  -19.0454   11.9835   23.9656 H   0  0  0  0  0  0  0  0  0  0  0  0
  -18.8268   11.4056   25.6262 H   0  0  0  0  0  0  0  0  0  0  0  0
  -20.5746   12.6648   25.3107 C   0  0  0  0  0  0  0  0  0  0  0  0
  -21.2369   11.8167   25.1068 H   0  0  0  0  0  0  0  0  0  0  0  0
  -20.8768   13.4622   24.6198 H   0  0  0  0  0  0  0  0  0  0  0  0
  -22.9829   12.6173   27.2332 C   0  0  0  0  0  0  0  0  0  0  0  0
  -23.3083   12.9381   26.2805 H   0  0  0  0  0  0  0  0  0  0  0  0
  -23.9096   12.1142   28.1411 C   0  0  0  0  0  0  0  0  0  0  0  0
  -24.9376   12.0561   27.8951 H   0  0  0  0  0  0  0  0  0  0  0  0
  1  2  1  0
  2  3  1  0
  2 29  2  0
  3  4  1  0
  3  5  2  0
  5  6  1  0
  5  7  1  0
  7  8  1  0
  7 27  2  0
  8  9  1  0
  8 24  1  0
  9 10  1  0
  9 11  1  0
  9 12  1  0
 12 13  1  0
 12 14  1  0
 12 15  1  0
 15 16  1  0
 15 21  1  0
 16 17  2  0
 16 18  1  0
 18 19  1  0
 18 20  1  0
 21 22  1  0
 21 23  1  0
 21 24  1  0
 24 25  1  0
 24 26  1  0
 27 28  1  0
 27 29  1  0
 29 30  1  0
M  END
$$$$
