F367_64
     RDKit          3D

 31 32  0  0  0  0  0  0  0  0999 V2000
  -20.9941   13.4817   28.4569 O   0  0  0  0  0  0  0  0  0  0  0  0
  -20.8038   12.8671   27.4155 C   0  0  0  0  0  0  0  0  0  0  0  0
  -21.6198   11.8029   27.1722 N   0  0  0  0  0  0  0  0  0  0  0  0
  -21.5724   11.3078   26.2738 H   0  0  0  0  0  0  0  0  0  0  0  0
  -22.6018   11.3493   28.1363 C   0  0  0  0  0  0  0  0  0  0  0  0
  -22.1046   11.2199   29.1046 H   0  0  0  0  0  0  0  0  0  0  0  0
  -22.9805   10.3713   27.8184 H   0  0  0  0  0  0  0  0  0  0  0  0
  -23.6958   12.3523   28.2275 C   0  0  0  0  0  0  0  0  0  0  0  0
  -24.1778   12.9364   29.3498 C   0  0  0  0  0  0  0  0  0  0  0  0
  -23.9083   12.8356   30.3677 H   0  0  0  0  0  0  0  0  0  0  0  0
  -25.1662   13.7634   28.9418 N   0  0  0  0  0  0  0  0  0  0  0  0
  -26.0048   14.6210   29.7525 C   0  0  0  0  0  0  0  0  0  0  0  0
  -26.4862   13.9956   30.5124 H   0  0  0  0  0  0  0  0  0  0  0  0
  -25.3504   15.3316   30.2683 H   0  0  0  0  0  0  0  0  0  0  0  0
  -27.0504   15.3492   28.9275 C   0  0  0  0  0  0  0  0  0  0  0  0
  -27.7036   14.6410   28.4063 H   0  0  0  0  0  0  0  0  0  0  0  0
  -26.5831   15.9891   28.1718 H   0  0  0  0  0  0  0  0  0  0  0  0
  -27.6718   15.9789   29.5714 H   0  0  0  0  0  0  0  0  0  0  0  0
  -25.3267   13.7255   27.5949 N   0  0  0  0  0  0  0  0  0  0  0  0
  -24.4372   12.8694   27.1723 C   0  0  0  0  0  0  0  0  0  0  0  0
  -24.3123   12.6219   26.1484 H   0  0  0  0  0  0  0  0  0  0  0  0
  -19.7821   13.2603   26.4262 C   0  0  0  0  0  0  0  0  0  0  0  0
  -19.3277   12.2882   25.5261 C   0  0  0  0  0  0  0  0  0  0  0  0
  -19.7192   11.3022   25.5757 H   0  0  0  0  0  0  0  0  0  0  0  0
  -18.4064   12.5485   24.5964 N   0  0  0  0  0  0  0  0  0  0  0  0
  -17.8922   13.7729   24.5009 C   0  0  0  0  0  0  0  0  0  0  0  0
  -17.1617   13.9488   23.7515 H   0  0  0  0  0  0  0  0  0  0  0  0
  -18.2937   14.8009   25.3497 C   0  0  0  0  0  0  0  0  0  0  0  0
  -17.8711   15.7659   25.2461 H   0  0  0  0  0  0  0  0  0  0  0  0
  -19.2502   14.5521   26.3258 C   0  0  0  0  0  0  0  0  0  0  0  0
  -19.5682   15.3314   26.9682 H   0  0  0  0  0  0  0  0  0  0  0  0
  1  2  2  0
  2  3  1  0
  2 22  1  0
  3  4  1  0
  3  5  1  0
  5  6  1  0
  5  7  1  0
  5  8  1  0
  8  9  2  0
  8 20  1  0
  9 10  1  0
  9 11  1  0
 11 12  1  0
 11 19  1  0
 12 13  1  0
 12 14  1  0
 12 15  1  0
 15 16  1  0
 15 17  1  0
 15 18  1  0
 19 20  2  0
 20 21  1  0
 22 23  1  0
 22 30  2  0
 23 24  1  0
 23 25  2  0
 25 26  1  0
 26 27  1  0
 26 28  2  0
 28 29  1  0
 28 30  1  0
 30 31  1  0
M  END
$$$$
