F369_49
     RDKit          3D

 32 33  0  0  0  0  0  0  0  0999 V2000
  -23.1389   13.0901   26.9477 O   0  0  0  0  0  0  0  0  0  0  0  0
  -22.8601   12.7903   28.0920 C   0  0  0  0  0  0  0  0  0  0  0  0
  -21.5692   12.5215   28.4494 N   0  0  0  0  0  0  0  0  0  0  0  0
  -21.4529   12.2762   29.4376 H   0  0  0  0  0  0  0  0  0  0  0  0
  -20.4345   12.5369   27.6526 C   0  0  0  0  0  0  0  0  0  0  0  0
  -20.3607   12.7795   26.3277 C   0  0  0  0  0  0  0  0  0  0  0  0
  -21.1039   13.0104   25.6106 H   0  0  0  0  0  0  0  0  0  0  0  0
  -19.0440   12.6752   26.0271 N   0  0  0  0  0  0  0  0  0  0  0  0
  -18.4163   12.8361   24.7326 C   0  0  0  0  0  0  0  0  0  0  0  0
  -17.4855   12.2589   24.7425 H   0  0  0  0  0  0  0  0  0  0  0  0
  -19.0799   12.3932   23.9817 H   0  0  0  0  0  0  0  0  0  0  0  0
  -18.1446   14.2929   24.4018 C   0  0  0  0  0  0  0  0  0  0  0  0
  -17.4709   14.7465   25.1363 H   0  0  0  0  0  0  0  0  0  0  0  0
  -19.0722   14.8758   24.3958 H   0  0  0  0  0  0  0  0  0  0  0  0
  -17.6810   14.3785   23.4146 H   0  0  0  0  0  0  0  0  0  0  0  0
  -18.2855   12.3791   27.1233 N   0  0  0  0  0  0  0  0  0  0  0  0
  -19.1419   12.2948   28.1087 C   0  0  0  0  0  0  0  0  0  0  0  0
  -18.8654   12.0736   29.1068 H   0  0  0  0  0  0  0  0  0  0  0  0
  -23.9116   12.6772   29.1857 C   0  0  0  0  0  0  0  0  0  0  0  0
  -23.8653   11.6489   29.5659 H   0  0  0  0  0  0  0  0  0  0  0  0
  -23.6708   13.6614   30.3380 C   0  0  0  0  0  0  0  0  0  0  0  0
  -23.2002   13.1676   31.1950 H   0  0  0  0  0  0  0  0  0  0  0  0
  -23.0144   14.4879   30.0452 H   0  0  0  0  0  0  0  0  0  0  0  0
  -25.0498   14.1930   30.7021 C   0  0  0  0  0  0  0  0  0  0  0  0
  -25.5532   13.4992   31.3857 H   0  0  0  0  0  0  0  0  0  0  0  0
  -25.0035   15.1736   31.1837 H   0  0  0  0  0  0  0  0  0  0  0  0
  -25.7771   14.2354   29.3699 C   0  0  0  0  0  0  0  0  0  0  0  0
  -25.4565   15.1077   28.7898 H   0  0  0  0  0  0  0  0  0  0  0  0
  -26.8626   14.2885   29.4908 H   0  0  0  0  0  0  0  0  0  0  0  0
  -25.3371   12.9489   28.6821 C   0  0  0  0  0  0  0  0  0  0  0  0
  -25.4181   13.0234   27.5931 H   0  0  0  0  0  0  0  0  0  0  0  0
  -25.9931   12.1282   29.0006 H   0  0  0  0  0  0  0  0  0  0  0  0
  1  2  2  0
  2  3  1  0
  2 19  1  0
  3  4  1  0
  3  5  1  0
  5  6  2  0
  5 17  1  0
  6  7  1  0
  6  8  1  0
  8  9  1  0
  8 16  1  0
  9 10  1  0
  9 11  1  0
  9 12  1  0
 12 13  1  0
 12 14  1  0
 12 15  1  0
 16 17  2  0
 17 18  1  0
 19 20  1  0
 19 21  1  0
 19 30  1  0
 21 22  1  0
 21 23  1  0
 21 24  1  0
 24 25  1  0
 24 26  1  0
 24 27  1  0
 27 28  1  0
 27 29  1  0
 27 30  1  0
 30 31  1  0
 30 32  1  0
M  END
$$$$
