F374_59
     RDKit          3D

 18 18  0  0  0  0  0  0  0  0999 V2000
  -18.5043   17.1127   27.3936 O   0  0  0  0  0  0  0  0  0  0  0  0
  -17.7227   17.8390   26.7819 C   0  0  0  0  0  0  0  0  0  0  0  0
  -18.2444   18.9424   26.1639 N   0  0  0  0  0  0  0  0  0  0  0  0
  -17.5719   19.5750   25.7077 H   0  0  0  0  0  0  0  0  0  0  0  0
  -19.6578   19.2554   26.1474 C   0  0  0  0  0  0  0  0  0  0  0  0
  -19.8393   19.9865   25.3517 H   0  0  0  0  0  0  0  0  0  0  0  0
  -20.2031   18.3401   25.8958 H   0  0  0  0  0  0  0  0  0  0  0  0
  -20.1256   19.8007   27.4825 C   0  0  0  0  0  0  0  0  0  0  0  0
  -21.1951   20.0291   27.4484 H   0  0  0  0  0  0  0  0  0  0  0  0
  -19.9545   19.0739   28.2835 H   0  0  0  0  0  0  0  0  0  0  0  0
  -19.5849   20.7169   27.7413 H   0  0  0  0  0  0  0  0  0  0  0  0
  -16.2969   17.6510   26.6753 C   0  0  0  0  0  0  0  0  0  0  0  0
  -15.5874   16.8134   27.4864 N   0  0  0  0  0  0  0  0  0  0  0  0
  -14.3313   16.8809   27.1231 N   0  0  0  0  0  0  0  0  0  0  0  0
  -14.2459   17.7443   26.0999 N   0  0  0  0  0  0  0  0  0  0  0  0
  -13.3521   17.9749   25.6272 H   0  0  0  0  0  0  0  0  0  0  0  0
  -15.4406   18.2353   25.8013 C   0  0  0  0  0  0  0  0  0  0  0  0
  -15.6044   18.9350   25.0229 H   0  0  0  0  0  0  0  0  0  0  0  0
  1  2  2  0
  2  3  1  0
  2 12  1  0
  3  4  1  0
  3  5  1  0
  5  6  1  0
  5  7  1  0
  5  8  1  0
  8  9  1  0
  8 10  1  0
  8 11  1  0
 12 13  1  0
 12 17  2  0
 13 14  2  0
 14 15  1  0
 15 16  1  0
 15 17  1  0
 17 18  1  0
M  END
$$$$
