F535_66
     RDKit          3D

 23 24  0  0  0  0  0  0  0  0999 V2000
  -20.7236   13.0358   27.9869 N   0  0  0  0  0  0  0  0  0  0  0  0
  -20.8818   14.0478   28.1082 H   0  0  0  0  0  0  0  0  0  0  0  0
  -20.7325   12.6640   28.9472 H   0  0  0  0  0  0  0  0  0  0  0  0
  -21.9050   12.4679   27.2591 C   0  0  0  0  0  0  0  0  0  0  0  0
  -21.8378   12.8179   26.2249 H   0  0  0  0  0  0  0  0  0  0  0  0
  -21.8024   11.3779   27.2921 H   0  0  0  0  0  0  0  0  0  0  0  0
  -23.1736   12.9003   27.8881 C   0  0  0  0  0  0  0  0  0  0  0  0
  -23.6331   12.4908   29.0779 N   0  0  0  0  0  0  0  0  0  0  0  0
  -24.8155   13.1191   29.2712 C   0  0  0  0  0  0  0  0  0  0  0  0
  -25.0587   13.8870   28.2338 N   0  0  0  0  0  0  0  0  0  0  0  0
  -24.0196   13.7452   27.3721 N   0  0  0  0  0  0  0  0  0  0  0  0
  -25.5415   12.8646   30.4731 C   0  0  0  0  0  0  0  0  0  0  0  0
  -26.4688   13.3546   30.6248 H   0  0  0  0  0  0  0  0  0  0  0  0
  -25.0363   12.0005   31.4018 C   0  0  0  0  0  0  0  0  0  0  0  0
  -25.5647   11.8005   32.3001 H   0  0  0  0  0  0  0  0  0  0  0  0
  -23.7814   11.3571   31.1640 C   0  0  0  0  0  0  0  0  0  0  0  0
  -23.4023   10.6895   31.8979 H   0  0  0  0  0  0  0  0  0  0  0  0
  -23.0827   11.5970   30.0133 C   0  0  0  0  0  0  0  0  0  0  0  0
  -22.1504   11.1652   29.7592 H   0  0  0  0  0  0  0  0  0  0  0  0
  -19.4083   12.7930   27.3495 C   0  0  0  0  0  0  0  0  0  0  0  0
  -19.4172   13.2485   26.3571 H   0  0  0  0  0  0  0  0  0  0  0  0
  -19.2494   11.7138   27.2904 H   0  0  0  0  0  0  0  0  0  0  0  0
  -18.6468   13.2584   27.9795 H   0  0  0  0  0  0  0  0  0  0  0  0
  1  2  1  0
  1  3  1  0
  1  4  1  0
  1 20  1  0
  4  5  1  0
  4  6  1  0
  4  7  1  0
  7  8  1  0
  7 11  2  0
  8  9  1  0
  8 18  1  0
  9 10  2  0
  9 12  1  0
 10 11  1  0
 12 13  1  0
 12 14  2  0
 14 15  1  0
 14 16  1  0
 16 17  1  0
 16 18  2  0
 18 19  1  0
 20 21  1  0
 20 22  1  0
 20 23  1  0
M  END
$$$$
