F179_52
     RDKit          3D

 29 30  0  0  0  0  0  0  0  0999 V2000
  -24.9882   14.1619   29.5619 C   0  0  0  0  0  0  0  0  0  0  0  0
  -24.6746   13.4930   30.3694 H   0  0  0  0  0  0  0  0  0  0  0  0
  -25.9543   14.6034   29.8315 H   0  0  0  0  0  0  0  0  0  0  0  0
  -24.2711   14.9880   29.5010 H   0  0  0  0  0  0  0  0  0  0  0  0
  -25.0897   13.4246   28.2305 C   0  0  0  0  0  0  0  0  0  0  0  0
  -25.5263   14.3463   27.2311 O   0  0  0  0  0  0  0  0  0  0  0  0
  -24.8514   15.0434   27.1662 H   0  0  0  0  0  0  0  0  0  0  0  0
  -23.7934   12.7883   27.8438 C   0  0  0  0  0  0  0  0  0  0  0  0
  -23.6145   11.5186   27.3071 C   0  0  0  0  0  0  0  0  0  0  0  0
  -24.3910   10.8225   27.1082 H   0  0  0  0  0  0  0  0  0  0  0  0
  -22.3533   11.2764   27.0712 N   0  0  0  0  0  0  0  0  0  0  0  0
  -21.6969   12.4043   27.4650 N   0  0  0  0  0  0  0  0  0  0  0  0
  -20.2622   12.5076   27.3569 C   0  0  0  0  0  0  0  0  0  0  0  0
  -19.8391   12.1830   28.3182 H   0  0  0  0  0  0  0  0  0  0  0  0
  -19.6473   11.6680   26.2382 C   0  0  0  0  0  0  0  0  0  0  0  0
  -19.6200   10.6017   26.4853 H   0  0  0  0  0  0  0  0  0  0  0  0
  -20.2077   11.7736   25.3017 H   0  0  0  0  0  0  0  0  0  0  0  0
  -18.2485   12.2520   26.0634 C   0  0  0  0  0  0  0  0  0  0  0  0
  -17.5195   11.6782   26.6476 H   0  0  0  0  0  0  0  0  0  0  0  0
  -17.9305   12.2135   25.0163 H   0  0  0  0  0  0  0  0  0  0  0  0
  -18.3141   13.6876   26.5856 C   0  0  0  0  0  0  0  0  0  0  0  0
  -18.0195   14.4133   25.8198 H   0  0  0  0  0  0  0  0  0  0  0  0
  -17.6252   13.8059   27.4309 H   0  0  0  0  0  0  0  0  0  0  0  0
  -19.7522   13.9119   27.0402 C   0  0  0  0  0  0  0  0  0  0  0  0
  -20.3282   14.3734   26.2282 H   0  0  0  0  0  0  0  0  0  0  0  0
  -19.8110   14.5818   27.9048 H   0  0  0  0  0  0  0  0  0  0  0  0
  -22.5584   13.3340   27.9356 C   0  0  0  0  0  0  0  0  0  0  0  0
  -22.2332   14.2802   28.2823 H   0  0  0  0  0  0  0  0  0  0  0  0
  -25.8607   12.6473   28.3063 H   0  0  0  0  0  0  0  0  0  0  0  0
  1  2  1  0
  1  3  1  0
  1  4  1  0
  1  5  1  0
  5  6  1  0
  5  8  1  0
  5 29  1  0
  6  7  1  0
  8  9  1  0
  8 27  2  0
  9 10  1  0
  9 11  2  0
 11 12  1  0
 12 13  1  0
 12 27  1  0
 13 14  1  0
 13 15  1  0
 13 24  1  0
 15 16  1  0
 15 17  1  0
 15 18  1  0
 18 19  1  0
 18 20  1  0
 18 21  1  0
 21 22  1  0
 21 23  1  0
 21 24  1  0
 24 25  1  0
 24 26  1  0
 27 28  1  0
M  END
$$$$
