F362_49
     RDKit          3D

 30 31  0  0  0  0  0  0  0  0999 V2000
  -25.3759   14.3382   29.5591 N   0  0  0  0  0  0  0  0  0  0  0  0
  -26.2546   15.5072   29.3621 C   0  0  0  0  0  0  0  0  0  0  0  0
  -27.2590   15.2094   29.0487 H   0  0  0  0  0  0  0  0  0  0  0  0
  -26.4139   16.0170   30.3207 H   0  0  0  0  0  0  0  0  0  0  0  0
  -25.6297   16.5003   28.3937 C   0  0  0  0  0  0  0  0  0  0  0  0
  -25.4054   16.0467   27.4246 H   0  0  0  0  0  0  0  0  0  0  0  0
  -24.6901   16.8976   28.7931 H   0  0  0  0  0  0  0  0  0  0  0  0
  -26.3072   17.3442   28.2271 H   0  0  0  0  0  0  0  0  0  0  0  0
  -25.4820   13.3425   28.4737 C   0  0  0  0  0  0  0  0  0  0  0  0
  -25.9312   12.4112   28.8353 H   0  0  0  0  0  0  0  0  0  0  0  0
  -26.1636   13.7030   27.6925 H   0  0  0  0  0  0  0  0  0  0  0  0
  -24.1196   13.0729   27.8503 C   0  0  0  0  0  0  0  0  0  0  0  0
  -23.4135   12.6719   28.5836 H   0  0  0  0  0  0  0  0  0  0  0  0
  -23.6863   13.9900   27.4392 H   0  0  0  0  0  0  0  0  0  0  0  0
  -24.2136   12.3466   27.0371 H   0  0  0  0  0  0  0  0  0  0  0  0
  -24.4983   14.1682   30.6883 C   0  0  0  0  0  0  0  0  0  0  0  0
  -24.0922   12.8643   31.1524 N   0  0  0  0  0  0  0  0  0  0  0  0
  -24.4062   11.6376   30.6807 N   0  0  0  0  0  0  0  0  0  0  0  0
  -23.7567   10.8539   31.4852 C   0  0  0  0  0  0  0  0  0  0  0  0
  -23.7890    9.7963   31.3894 H   0  0  0  0  0  0  0  0  0  0  0  0
  -23.0444   11.4575   32.4425 N   0  0  0  0  0  0  0  0  0  0  0  0
  -23.2551   12.7246   32.2316 C   0  0  0  0  0  0  0  0  0  0  0  0
  -22.7528   13.8030   32.9399 N   0  0  0  0  0  0  0  0  0  0  0  0
  -23.0894   14.9925   32.5602 C   0  0  0  0  0  0  0  0  0  0  0  0
  -22.5565   16.1809   33.3125 C   0  0  0  0  0  0  0  0  0  0  0  0
  -22.9252   17.1197   32.8927 H   0  0  0  0  0  0  0  0  0  0  0  0
  -21.4638   16.1767   33.2663 H   0  0  0  0  0  0  0  0  0  0  0  0
  -22.8688   16.1144   34.3591 H   0  0  0  0  0  0  0  0  0  0  0  0
  -23.9878   15.2373   31.4014 C   0  0  0  0  0  0  0  0  0  0  0  0
  -24.2402   16.2259   31.1377 H   0  0  0  0  0  0  0  0  0  0  0  0
  1  2  1  0
  1  9  1  0
  1 16  1  0
  2  3  1  0
  2  4  1  0
  2  5  1  0
  5  6  1  0
  5  7  1  0
  5  8  1  0
  9 10  1  0
  9 11  1  0
  9 12  1  0
 12 13  1  0
 12 14  1  0
 12 15  1  0
 16 17  1  0
 16 29  2  0
 17 18  1  0
 17 22  1  0
 18 19  2  0
 19 20  1  0
 19 21  1  0
 21 22  2  0
 22 23  1  0
 23 24  2  0
 24 25  1  0
 24 29  1  0
 25 26  1  0
 25 27  1  0
 25 28  1  0
 29 30  1  0
M  END
$$$$
