F558_25
     RDKit          3D

 32 33  0  0  0  0  0  0  0  0999 V2000
  -24.6527   15.0254   29.4774 O   0  0  0  0  0  0  0  0  0  0  0  0
  -25.1384   13.9054   29.5362 C   0  0  0  0  0  0  0  0  0  0  0  0
  -26.3722   13.6072   30.0218 O   0  0  0  0  0  0  0  0  0  0  0  0
  -27.1096   14.7367   30.4950 C   0  0  0  0  0  0  0  0  0  0  0  0
  -27.2650   15.4581   29.6874 H   0  0  0  0  0  0  0  0  0  0  0  0
  -26.5907   15.2039   31.3386 H   0  0  0  0  0  0  0  0  0  0  0  0
  -28.0850   14.3835   30.8395 H   0  0  0  0  0  0  0  0  0  0  0  0
  -24.5182   12.7560   29.1531 N   0  0  0  0  0  0  0  0  0  0  0  0
  -25.0637   11.9117   29.3496 H   0  0  0  0  0  0  0  0  0  0  0  0
  -23.2537   12.5792   28.5504 C   0  0  0  0  0  0  0  0  0  0  0  0
  -22.2609   13.5618   28.5536 C   0  0  0  0  0  0  0  0  0  0  0  0
  -22.4299   14.4992   29.0133 H   0  0  0  0  0  0  0  0  0  0  0  0
  -21.0418   13.3035   27.9361 C   0  0  0  0  0  0  0  0  0  0  0  0
  -20.2894   14.0505   27.9377 H   0  0  0  0  0  0  0  0  0  0  0  0
  -20.8053   12.0766   27.3128 C   0  0  0  0  0  0  0  0  0  0  0  0
  -19.4850   11.8110   26.6250 C   0  0  0  0  0  0  0  0  0  0  0  0
  -19.6403   11.0982   25.8042 H   0  0  0  0  0  0  0  0  0  0  0  0
  -18.8027   11.2943   27.3130 H   0  0  0  0  0  0  0  0  0  0  0  0
  -18.8203   13.0591   26.1016 C   0  0  0  0  0  0  0  0  0  0  0  0
  -17.9768   13.8190   26.9034 C   0  0  0  0  0  0  0  0  0  0  0  0
  -17.7691   13.5250   27.8986 H   0  0  0  0  0  0  0  0  0  0  0  0
  -17.3987   14.9781   26.3957 C   0  0  0  0  0  0  0  0  0  0  0  0
  -16.7545   15.5645   27.0016 H   0  0  0  0  0  0  0  0  0  0  0  0
  -17.6284   15.3910   25.1512 N   0  0  0  0  0  0  0  0  0  0  0  0
  -18.4354   14.6806   24.3653 C   0  0  0  0  0  0  0  0  0  0  0  0
  -18.6055   15.0326   23.3787 H   0  0  0  0  0  0  0  0  0  0  0  0
  -19.0475   13.5124   24.8078 C   0  0  0  0  0  0  0  0  0  0  0  0
  -19.6887   12.9760   24.1567 H   0  0  0  0  0  0  0  0  0  0  0  0
  -21.8109   11.1068   27.3057 C   0  0  0  0  0  0  0  0  0  0  0  0
  -21.6463   10.1731   26.8324 H   0  0  0  0  0  0  0  0  0  0  0  0
  -23.0337   11.3547   27.9202 C   0  0  0  0  0  0  0  0  0  0  0  0
  -23.7908   10.6140   27.9156 H   0  0  0  0  0  0  0  0  0  0  0  0
  1  2  2  0
  2  3  1  0
  2  8  1  0
  3  4  1  0
  4  5  1  0
  4  6  1  0
  4  7  1  0
  8  9  1  0
  8 10  1  0
 10 11  1  0
 10 31  2  0
 11 12  1  0
 11 13  2  0
 13 14  1  0
 13 15  1  0
 15 16  1  0
 15 29  2  0
 16 17  1  0
 16 18  1  0
 16 19  1  0
 19 20  1  0
 19 27  2  0
 20 21  1  0
 20 22  2  0
 22 23  1  0
 22 24  1  0
 24 25  2  0
 25 26  1  0
 25 27  1  0
 27 28  1  0
 29 30  1  0
 29 31  1  0
 31 32  1  0
M  END
$$$$
