F666_87
     RDKit          3D

 35 37  0  0  0  0  0  0  0  0999 V2000
  -13.6662   19.4851   26.9030 F   0  0  0  0  0  0  0  0  0  0  0  0
  -14.6917   18.6370   26.7407 C   0  0  0  0  0  0  0  0  0  0  0  0
  -15.9402   18.9904   27.2372 C   0  0  0  0  0  0  0  0  0  0  0  0
  -16.0714   19.9165   27.7336 H   0  0  0  0  0  0  0  0  0  0  0  0
  -17.0055   18.1105   27.0707 C   0  0  0  0  0  0  0  0  0  0  0  0
  -17.9548   18.3759   27.4462 H   0  0  0  0  0  0  0  0  0  0  0  0
  -16.8057   16.8810   26.4177 C   0  0  0  0  0  0  0  0  0  0  0  0
  -17.8614   15.9910   26.2642 N   0  0  0  0  0  0  0  0  0  0  0  0
  -18.5785   15.4064   27.4073 C   0  0  0  0  0  0  0  0  0  0  0  0
  -18.1402   15.6718   28.3746 H   0  0  0  0  0  0  0  0  0  0  0  0
  -19.5983   15.8108   27.4092 H   0  0  0  0  0  0  0  0  0  0  0  0
  -18.6432   13.8767   27.2722 C   0  0  0  0  0  0  0  0  0  0  0  0
  -19.2442   13.4603   28.0839 H   0  0  0  0  0  0  0  0  0  0  0  0
  -17.6370   13.4500   27.3569 H   0  0  0  0  0  0  0  0  0  0  0  0
  -19.1638   13.4839   25.9557 N   0  0  0  0  0  0  0  0  0  0  0  0
  -20.2318   12.6422   25.7521 C   0  0  0  0  0  0  0  0  0  0  0  0
  -20.5625   12.3814   24.6099 O   0  0  0  0  0  0  0  0  0  0  0  0
  -20.9464   12.0729   26.9167 C   0  0  0  0  0  0  0  0  0  0  0  0
  -20.5596   11.1134   27.2460 H   0  0  0  0  0  0  0  0  0  0  0  0
  -22.4437   12.2440   27.0448 C   0  0  0  0  0  0  0  0  0  0  0  0
  -22.9640   12.8090   26.2795 H   0  0  0  0  0  0  0  0  0  0  0  0
  -23.0143   11.4170   27.4494 H   0  0  0  0  0  0  0  0  0  0  0  0
  -21.5287   12.9888   27.9682 C   0  0  0  0  0  0  0  0  0  0  0  0
  -21.4408   14.0609   27.8296 H   0  0  0  0  0  0  0  0  0  0  0  0
  -21.4803   12.6687   29.0022 H   0  0  0  0  0  0  0  0  0  0  0  0
  -18.4343   14.0706   24.8245 C   0  0  0  0  0  0  0  0  0  0  0  0
  -17.4252   13.6430   24.8440 H   0  0  0  0  0  0  0  0  0  0  0  0
  -18.8881   13.7955   23.8671 H   0  0  0  0  0  0  0  0  0  0  0  0
  -18.3563   15.6035   24.9334 C   0  0  0  0  0  0  0  0  0  0  0  0
  -19.3508   16.0404   24.7858 H   0  0  0  0  0  0  0  0  0  0  0  0
  -17.7098   15.9624   24.1249 H   0  0  0  0  0  0  0  0  0  0  0  0
  -15.5376   16.5593   25.9069 C   0  0  0  0  0  0  0  0  0  0  0  0
  -15.3925   15.6572   25.3739 H   0  0  0  0  0  0  0  0  0  0  0  0
  -14.4722   17.4384   26.0764 C   0  0  0  0  0  0  0  0  0  0  0  0
  -13.5107   17.2074   25.6994 H   0  0  0  0  0  0  0  0  0  0  0  0
  1  2  1  0
  2  3  1  0
  2 34  2  0
  3  4  1  0
  3  5  2  0
  5  6  1  0
  5  7  1  0
  7  8  1  0
  7 32  2  0
  8  9  1  0
  8 29  1  0
  9 10  1  0
  9 11  1  0
  9 12  1  0
 12 13  1  0
 12 14  1  0
 12 15  1  0
 15 16  1  0
 15 26  1  0
 16 17  2  0
 16 18  1  0
 18 19  1  0
 18 20  1  0
 18 23  1  0
 20 21  1  0
 20 22  1  0
 20 23  1  0
 23 24  1  0
 23 25  1  0
 26 27  1  0
 26 28  1  0
 26 29  1  0
 29 30  1  0
 29 31  1  0
 32 33  1  0
 32 34  1  0
 34 35  1  0
M  END
$$$$
