F579_83
     RDKit          3D

 29 31  0  0  0  0  0  0  0  0999 V2000
  -23.2951   10.2381   29.5822 O   0  0  0  0  0  0  0  0  0  0  0  0
  -23.3861   11.2937   30.1679 C   0  0  0  0  0  0  0  0  0  0  0  0
  -22.7207   12.4054   29.7495 N   0  0  0  0  0  0  0  0  0  0  0  0
  -22.8379   13.2486   30.3175 H   0  0  0  0  0  0  0  0  0  0  0  0
  -21.8918   12.5815   28.6663 C   0  0  0  0  0  0  0  0  0  0  0  0
  -21.7149   11.3671   27.4370 S   0  0  0  0  0  0  0  0  0  0  0  0
  -20.6096   12.4230   26.6280 C   0  0  0  0  0  0  0  0  0  0  0  0
  -20.4715   13.6022   27.3590 C   0  0  0  0  0  0  0  0  0  0  0  0
  -21.2163   13.6789   28.5294 N   0  0  0  0  0  0  0  0  0  0  0  0
  -19.6143   14.6044   26.8752 C   0  0  0  0  0  0  0  0  0  0  0  0
  -19.5048   15.5013   27.4263 H   0  0  0  0  0  0  0  0  0  0  0  0
  -18.9216   14.4121   25.6884 C   0  0  0  0  0  0  0  0  0  0  0  0
  -18.2770   15.1700   25.3271 H   0  0  0  0  0  0  0  0  0  0  0  0
  -19.0821   13.2071   24.9681 C   0  0  0  0  0  0  0  0  0  0  0  0
  -18.4529   12.9058   23.7858 O   0  0  0  0  0  0  0  0  0  0  0  0
  -17.4351   13.7959   23.3428 C   0  0  0  0  0  0  0  0  0  0  0  0
  -16.6035   13.8296   24.0547 H   0  0  0  0  0  0  0  0  0  0  0  0
  -17.0452   13.4127   22.3950 H   0  0  0  0  0  0  0  0  0  0  0  0
  -17.8390   14.7963   23.1560 H   0  0  0  0  0  0  0  0  0  0  0  0
  -19.9210   12.2080   25.4265 C   0  0  0  0  0  0  0  0  0  0  0  0
  -20.0381   11.3054   24.8858 H   0  0  0  0  0  0  0  0  0  0  0  0
  -24.2372   11.4634   31.3659 C   0  0  0  0  0  0  0  0  0  0  0  0
  -25.1395   12.0392   31.1785 H   0  0  0  0  0  0  0  0  0  0  0  0
  -23.6299   11.5586   32.7456 C   0  0  0  0  0  0  0  0  0  0  0  0
  -22.5556   11.4681   32.8619 H   0  0  0  0  0  0  0  0  0  0  0  0
  -24.0976   12.2256   33.4595 H   0  0  0  0  0  0  0  0  0  0  0  0
  -24.3829   10.3243   32.3456 C   0  0  0  0  0  0  0  0  0  0  0  0
  -25.3591   10.1570   32.7843 H   0  0  0  0  0  0  0  0  0  0  0  0
  -23.8159    9.4164   32.1680 H   0  0  0  0  0  0  0  0  0  0  0  0
  1  2  2  0
  2  3  1  0
  2 22  1  0
  3  4  1  0
  3  5  1  0
  5  6  1  0
  5  9  2  0
  6  7  1  0
  7  8  1  0
  7 20  2  0
  8  9  1  0
  8 10  2  0
 10 11  1  0
 10 12  1  0
 12 13  1  0
 12 14  2  0
 14 15  1  0
 14 20  1  0
 15 16  1  0
 16 17  1  0
 16 18  1  0
 16 19  1  0
 20 21  1  0
 22 23  1  0
 22 24  1  0
 22 27  1  0
 24 25  1  0
 24 26  1  0
 24 27  1  0
 27 28  1  0
 27 29  1  0
M  END
$$$$
