F199_84
     RDKit          3D

 25 26  0  0  0  0  0  0  0  0999 V2000
  -19.9766   11.7602   27.0321 O   0  0  0  0  0  0  0  0  0  0  0  0
  -19.9660   12.9527   27.3303 C   0  0  0  0  0  0  0  0  0  0  0  0
  -21.0851   13.5117   27.8976 N   0  0  0  0  0  0  0  0  0  0  0  0
  -20.9846   14.5134   28.1135 H   0  0  0  0  0  0  0  0  0  0  0  0
  -22.2841   12.8883   28.1933 C   0  0  0  0  0  0  0  0  0  0  0  0
  -23.3141   13.5518   28.7566 C   0  0  0  0  0  0  0  0  0  0  0  0
  -23.4270   14.5585   29.0592 H   0  0  0  0  0  0  0  0  0  0  0  0
  -24.2935   12.6233   28.8893 N   0  0  0  0  0  0  0  0  0  0  0  0
  -25.6131   12.8016   29.4375 C   0  0  0  0  0  0  0  0  0  0  0  0
  -25.7326   13.8350   29.7714 H   0  0  0  0  0  0  0  0  0  0  0  0
  -25.7309   12.1200   30.2836 H   0  0  0  0  0  0  0  0  0  0  0  0
  -26.3442   12.5748   28.6575 H   0  0  0  0  0  0  0  0  0  0  0  0
  -23.9134   11.4015   28.4294 N   0  0  0  0  0  0  0  0  0  0  0  0
  -22.6857   11.5664   28.0043 C   0  0  0  0  0  0  0  0  0  0  0  0
  -22.1016   10.7907   27.5811 H   0  0  0  0  0  0  0  0  0  0  0  0
  -18.8428   13.8459   27.1304 C   0  0  0  0  0  0  0  0  0  0  0  0
  -17.6086   13.4138   27.0569 N   0  0  0  0  0  0  0  0  0  0  0  0
  -16.8301   14.4764   26.8735 O   0  0  0  0  0  0  0  0  0  0  0  0
  -17.5632   15.5934   26.8296 C   0  0  0  0  0  0  0  0  0  0  0  0
  -16.8438   16.8614   26.6313 C   0  0  0  0  0  0  0  0  0  0  0  0
  -17.5359   17.7089   26.6195 H   0  0  0  0  0  0  0  0  0  0  0  0
  -16.3029   16.8502   25.6802 H   0  0  0  0  0  0  0  0  0  0  0  0
  -16.1212   17.0236   27.4363 H   0  0  0  0  0  0  0  0  0  0  0  0
  -18.8436   15.2351   26.9900 C   0  0  0  0  0  0  0  0  0  0  0  0
  -19.6883   15.8736   27.0060 H   0  0  0  0  0  0  0  0  0  0  0  0
  1  2  2  0
  2  3  1  0
  2 16  1  0
  3  4  1  0
  3  5  1  0
  5  6  2  0
  5 14  1  0
  6  7  1  0
  6  8  1  0
  8  9  1  0
  8 13  1  0
  9 10  1  0
  9 11  1  0
  9 12  1  0
 13 14  2  0
 14 15  1  0
 16 17  2  0
 16 24  1  0
 17 18  1  0
 18 19  1  0
 19 20  1  0
 19 24  2  0
 20 21  1  0
 20 22  1  0
 20 23  1  0
 24 25  1  0
M  END
$$$$
