F741_90
     RDKit          3D

 25 27  0  0  0  0  0  0  0  0999 V2000
  -22.4425   12.0751   26.6641 O   0  0  0  0  0  0  0  0  0  0  0  0
  -21.6204   12.8871   27.0845 C   0  0  0  0  0  0  0  0  0  0  0  0
  -21.8975   13.5569   28.2384 N   0  0  0  0  0  0  0  0  0  0  0  0
  -21.1674   14.2164   28.5542 H   0  0  0  0  0  0  0  0  0  0  0  0
  -23.0872   13.3968   29.0057 C   0  0  0  0  0  0  0  0  0  0  0  0
  -23.7500   14.2569   28.9447 H   0  0  0  0  0  0  0  0  0  0  0  0
  -23.0598   12.6658   30.3208 C   0  0  0  0  0  0  0  0  0  0  0  0
  -22.1279   12.2256   30.6541 H   0  0  0  0  0  0  0  0  0  0  0  0
  -23.6848   13.0448   31.1207 H   0  0  0  0  0  0  0  0  0  0  0  0
  -23.7388   12.0478   29.1342 C   0  0  0  0  0  0  0  0  0  0  0  0
  -24.8213   12.0104   29.1251 H   0  0  0  0  0  0  0  0  0  0  0  0
  -23.2597   11.1996   28.6587 H   0  0  0  0  0  0  0  0  0  0  0  0
  -20.3616   13.1814   26.4400 C   0  0  0  0  0  0  0  0  0  0  0  0
  -19.5960   14.3040   26.6326 C   0  0  0  0  0  0  0  0  0  0  0  0
  -18.5097   14.1241   25.8092 N   0  0  0  0  0  0  0  0  0  0  0  0
  -18.5549   12.9535   25.1193 N   0  0  0  0  0  0  0  0  0  0  0  0
  -19.6768   12.3992   25.5112 C   0  0  0  0  0  0  0  0  0  0  0  0
  -20.0141   11.4581   25.1533 H   0  0  0  0  0  0  0  0  0  0  0  0
  -17.4888   15.0794   25.7295 C   0  0  0  0  0  0  0  0  0  0  0  0
  -16.6941   14.8529   25.0674 H   0  0  0  0  0  0  0  0  0  0  0  0
  -17.6394   16.1906   26.5138 C   0  0  0  0  0  0  0  0  0  0  0  0
  -16.9111   16.9590   26.5084 H   0  0  0  0  0  0  0  0  0  0  0  0
  -18.7870   16.3417   27.3602 C   0  0  0  0  0  0  0  0  0  0  0  0
  -18.8817   17.2115   27.9583 H   0  0  0  0  0  0  0  0  0  0  0  0
  -19.7352   15.4474   27.4307 N   0  0  0  0  0  0  0  0  0  0  0  0
  1  2  2  0
  2  3  1  0
  2 13  1  0
  3  4  1  0
  3  5  1  0
  5  6  1  0
  5  7  1  0
  5 10  1  0
  7  8  1  0
  7  9  1  0
  7 10  1  0
 10 11  1  0
 10 12  1  0
 13 14  2  0
 13 17  1  0
 14 15  1  0
 14 25  1  0
 15 16  1  0
 15 19  1  0
 16 17  2  0
 17 18  1  0
 19 20  1  0
 19 21  2  0
 21 22  1  0
 21 23  1  0
 23 24  1  0
 23 25  2  0
M  END
$$$$
