F368_34
     RDKit          3D

 29 30  0  0  0  0  0  0  0  0999 V2000
  -21.0611   14.2034   28.1015 O   0  0  0  0  0  0  0  0  0  0  0  0
  -20.9995   13.1551   27.4870 C   0  0  0  0  0  0  0  0  0  0  0  0
  -22.1244   12.4169   27.2385 N   0  0  0  0  0  0  0  0  0  0  0  0
  -21.9692   11.5423   26.7238 H   0  0  0  0  0  0  0  0  0  0  0  0
  -23.4328   12.7089   27.6015 C   0  0  0  0  0  0  0  0  0  0  0  0
  -23.8769   13.7802   28.2907 C   0  0  0  0  0  0  0  0  0  0  0  0
  -23.3744   14.6151   28.7002 H   0  0  0  0  0  0  0  0  0  0  0  0
  -25.2179   13.6009   28.3859 N   0  0  0  0  0  0  0  0  0  0  0  0
  -26.1807   14.4627   29.0367 C   0  0  0  0  0  0  0  0  0  0  0  0
  -25.8283   15.4948   28.9285 H   0  0  0  0  0  0  0  0  0  0  0  0
  -27.1286   14.3738   28.4951 H   0  0  0  0  0  0  0  0  0  0  0  0
  -26.3717   14.1078   30.5003 C   0  0  0  0  0  0  0  0  0  0  0  0
  -27.1098   14.7724   30.9595 H   0  0  0  0  0  0  0  0  0  0  0  0
  -26.7222   13.0767   30.6123 H   0  0  0  0  0  0  0  0  0  0  0  0
  -25.4330   14.2038   31.0559 H   0  0  0  0  0  0  0  0  0  0  0  0
  -25.6292   12.4514   27.7730 N   0  0  0  0  0  0  0  0  0  0  0  0
  -24.5344   11.9149   27.2998 C   0  0  0  0  0  0  0  0  0  0  0  0
  -24.5158   11.0012   26.7645 H   0  0  0  0  0  0  0  0  0  0  0  0
  -19.6886   12.5279   26.9261 C   0  0  0  0  0  0  0  0  0  0  0  0
  -19.2822   11.7476   27.5877 H   0  0  0  0  0  0  0  0  0  0  0  0
  -19.7121   12.0380   25.4519 C   0  0  0  0  0  0  0  0  0  0  0  0
  -20.4186   12.5719   24.8073 H   0  0  0  0  0  0  0  0  0  0  0  0
  -19.8505   10.9617   25.3141 H   0  0  0  0  0  0  0  0  0  0  0  0
  -18.2606   12.5379   25.3284 C   0  0  0  0  0  0  0  0  0  0  0  0
  -17.9960   13.0005   24.3746 H   0  0  0  0  0  0  0  0  0  0  0  0
  -17.5108   11.7790   25.5797 H   0  0  0  0  0  0  0  0  0  0  0  0
  -18.5681   13.5094   26.4836 C   0  0  0  0  0  0  0  0  0  0  0  0
  -18.9296   14.4896   26.1504 H   0  0  0  0  0  0  0  0  0  0  0  0
  -17.7572   13.6565   27.2015 H   0  0  0  0  0  0  0  0  0  0  0  0
  1  2  2  0
  2  3  1  0
  2 19  1  0
  3  4  1  0
  3  5  1  0
  5  6  2  0
  5 17  1  0
  6  7  1  0
  6  8  1  0
  8  9  1  0
  8 16  1  0
  9 10  1  0
  9 11  1  0
  9 12  1  0
 12 13  1  0
 12 14  1  0
 12 15  1  0
 16 17  2  0
 17 18  1  0
 19 20  1  0
 19 21  1  0
 19 27  1  0
 21 22  1  0
 21 23  1  0
 21 24  1  0
 24 25  1  0
 24 26  1  0
 24 27  1  0
 27 28  1  0
 27 29  1  0
M  END
$$$$
