F229_73
     RDKit          3D

 27 28  0  0  0  0  0  0  0  0999 V2000
  -24.3551   14.0196   26.8279 F   0  0  0  0  0  0  0  0  0  0  0  0
  -23.9393   13.3284   27.9013 C   0  0  0  0  0  0  0  0  0  0  0  0
  -22.5976   12.9137   28.0198 C   0  0  0  0  0  0  0  0  0  0  0  0
  -21.6209   13.1810   27.0689 N   0  0  0  0  0  0  0  0  0  0  0  0
  -21.9021   13.3039   26.1033 H   0  0  0  0  0  0  0  0  0  0  0  0
  -20.2034   13.3085   27.3589 C   0  0  0  0  0  0  0  0  0  0  0  0
  -20.0747   13.7735   28.3441 H   0  0  0  0  0  0  0  0  0  0  0  0
  -19.7464   12.3130   27.4086 H   0  0  0  0  0  0  0  0  0  0  0  0
  -19.4444   14.1188   26.3528 C   0  0  0  0  0  0  0  0  0  0  0  0
  -19.1822   13.7761   25.0279 C   0  0  0  0  0  0  0  0  0  0  0  0
  -19.5726   12.5466   24.2970 C   0  0  0  0  0  0  0  0  0  0  0  0
  -20.6500   12.3720   24.3864 H   0  0  0  0  0  0  0  0  0  0  0  0
  -19.0478   11.6773   24.7070 H   0  0  0  0  0  0  0  0  0  0  0  0
  -19.3322   12.6149   23.2308 H   0  0  0  0  0  0  0  0  0  0  0  0
  -18.5039   14.7142   24.4293 N   0  0  0  0  0  0  0  0  0  0  0  0
  -18.3272   15.6753   25.3687 N   0  0  0  0  0  0  0  0  0  0  0  0
  -17.8153   16.5574   25.1800 H   0  0  0  0  0  0  0  0  0  0  0  0
  -18.8923   15.3391   26.5461 C   0  0  0  0  0  0  0  0  0  0  0  0
  -18.8582   15.9715   27.3941 H   0  0  0  0  0  0  0  0  0  0  0  0
  -22.2172   12.2059   29.1614 C   0  0  0  0  0  0  0  0  0  0  0  0
  -21.2116   11.8974   29.2784 H   0  0  0  0  0  0  0  0  0  0  0  0
  -23.1593   11.9075   30.1445 C   0  0  0  0  0  0  0  0  0  0  0  0
  -22.8655   11.3666   31.0083 H   0  0  0  0  0  0  0  0  0  0  0  0
  -24.4881   12.3152   30.0068 C   0  0  0  0  0  0  0  0  0  0  0  0
  -25.1955   12.0825   30.7616 H   0  0  0  0  0  0  0  0  0  0  0  0
  -24.8795   13.0323   28.8781 C   0  0  0  0  0  0  0  0  0  0  0  0
  -25.8835   13.3533   28.7644 H   0  0  0  0  0  0  0  0  0  0  0  0
  1  2  1  0
  2  3  1  0
  2 26  2  0
  3  4  1  0
  3 20  2  0
  4  5  1  0
  4  6  1  0
  6  7  1  0
  6  8  1  0
  6  9  1  0
  9 10  1  0
  9 18  2  0
 10 11  1  0
 10 15  2  0
 11 12  1  0
 11 13  1  0
 11 14  1  0
 15 16  1  0
 16 17  1  0
 16 18  1  0
 18 19  1  0
 20 21  1  0
 20 22  1  0
 22 23  1  0
 22 24  2  0
 24 25  1  0
 24 26  1  0
 26 27  1  0
M  END
$$$$
