F503_63
     RDKit          3D

 29 30  0  0  0  0  0  0  0  0999 V2000
  -16.7412   14.2823   24.6767 F   0  0  0  0  0  0  0  0  0  0  0  0
  -16.9441   15.2480   25.5858 C   0  0  0  0  0  0  0  0  0  0  0  0
  -18.2157   15.4164   26.1384 C   0  0  0  0  0  0  0  0  0  0  0  0
  -19.3671   14.5254   25.7455 C   0  0  0  0  0  0  0  0  0  0  0  0
  -19.2324   14.1646   24.7177 H   0  0  0  0  0  0  0  0  0  0  0  0
  -20.2758   15.1415   25.7123 H   0  0  0  0  0  0  0  0  0  0  0  0
  -19.5748   13.3385   26.6804 C   0  0  0  0  0  0  0  0  0  0  0  0
  -20.8945   13.2796   27.3817 C   0  0  0  0  0  0  0  0  0  0  0  0
  -21.0357   13.5041   28.5668 O   0  0  0  0  0  0  0  0  0  0  0  0
  -21.9701   12.9362   26.6312 N   0  0  0  0  0  0  0  0  0  0  0  0
  -21.8102   12.7066   25.6603 H   0  0  0  0  0  0  0  0  0  0  0  0
  -23.3095   12.8674   27.1578 C   0  0  0  0  0  0  0  0  0  0  0  0
  -23.3596   12.0688   27.9026 H   0  0  0  0  0  0  0  0  0  0  0  0
  -23.5662   13.8205   27.6270 H   0  0  0  0  0  0  0  0  0  0  0  0
  -23.9988   12.6570   26.3363 H   0  0  0  0  0  0  0  0  0  0  0  0
  -18.3889   12.6664   27.3789 C   0  0  0  0  0  0  0  0  0  0  0  0
  -18.5546   12.2175   28.3541 H   0  0  0  0  0  0  0  0  0  0  0  0
  -17.3875   13.0610   27.2577 H   0  0  0  0  0  0  0  0  0  0  0  0
  -19.0094   12.0009   26.1972 C   0  0  0  0  0  0  0  0  0  0  0  0
  -19.5938   11.1031   26.3671 H   0  0  0  0  0  0  0  0  0  0  0  0
  -18.4367   11.9746   25.2771 H   0  0  0  0  0  0  0  0  0  0  0  0
  -18.3924   16.4386   27.0716 C   0  0  0  0  0  0  0  0  0  0  0  0
  -19.3431   16.6009   27.5107 H   0  0  0  0  0  0  0  0  0  0  0  0
  -17.3221   17.2580   27.4322 C   0  0  0  0  0  0  0  0  0  0  0  0
  -17.4683   18.0327   28.1435 H   0  0  0  0  0  0  0  0  0  0  0  0
  -16.0614   17.0682   26.8674 C   0  0  0  0  0  0  0  0  0  0  0  0
  -15.2533   17.6957   27.1474 H   0  0  0  0  0  0  0  0  0  0  0  0
  -15.8679   16.0545   25.9347 C   0  0  0  0  0  0  0  0  0  0  0  0
  -14.9185   15.8950   25.4938 H   0  0  0  0  0  0  0  0  0  0  0  0
  1  2  1  0
  2  3  1  0
  2 28  2  0
  3  4  1  0
  3 22  2  0
  4  5  1  0
  4  6  1  0
  4  7  1  0
  7  8  1  0
  7 16  1  0
  7 19  1  0
  8  9  2  0
  8 10  1  0
 10 11  1  0
 10 12  1  0
 12 13  1  0
 12 14  1  0
 12 15  1  0
 16 17  1  0
 16 18  1  0
 16 19  1  0
 19 20  1  0
 19 21  1  0
 22 23  1  0
 22 24  1  0
 24 25  1  0
 24 26  2  0
 26 27  1  0
 26 28  1  0
 28 29  1  0
M  END
$$$$
