F309_63
     RDKit          3D

 14 14  0  0  0  0  0  0  0  0999 V2000
  -18.0898   16.8145   25.9495 O   0  0  0  0  0  0  0  0  0  0  0  0
  -18.7893   15.8703   26.4106 C   0  0  0  0  0  0  0  0  0  0  0  0
  -19.3436   15.9960   27.5425 O   0  0  0  0  0  0  0  0  0  0  0  0
  -18.9582   14.6443   25.6410 C   0  0  0  0  0  0  0  0  0  0  0  0
  -19.4968   13.4453   26.0773 C   0  0  0  0  0  0  0  0  0  0  0  0
  -20.0176   13.1923   27.4619 C   0  0  0  0  0  0  0  0  0  0  0  0
  -20.3887   12.1674   27.5643 H   0  0  0  0  0  0  0  0  0  0  0  0
  -20.8488   13.8666   27.6916 H   0  0  0  0  0  0  0  0  0  0  0  0
  -19.2236   13.3283   28.2039 H   0  0  0  0  0  0  0  0  0  0  0  0
  -19.5166   12.4553   25.0815 C   0  0  0  0  0  0  0  0  0  0  0  0
  -19.8941   11.4776   25.2337 H   0  0  0  0  0  0  0  0  0  0  0  0
  -18.9996   12.8807   23.8926 C   0  0  0  0  0  0  0  0  0  0  0  0
  -18.9036   12.3258   22.9956 H   0  0  0  0  0  0  0  0  0  0  0  0
  -18.4744   14.5177   23.9730 S   0  0  0  0  0  0  0  0  0  0  0  0
  1  2  1  0
  2  3  2  0
  2  4  1  0
  4  5  2  0
  4 14  1  0
  5  6  1  0
  5 10  1  0
  6  7  1  0
  6  8  1  0
  6  9  1  0
 10 11  1  0
 10 12  2  0
 12 13  1  0
 12 14  1  0
M  END
$$$$
