F467_43
     RDKit          3D

 24 24  0  0  0  0  0  0  0  0999 V2000
  -16.8282   13.9090   23.4894 O   0  0  0  0  0  0  0  0  0  0  0  0
  -16.2184   13.2717   23.0766 H   0  0  0  0  0  0  0  0  0  0  0  0
  -17.9429   13.1681   23.9719 C   0  0  0  0  0  0  0  0  0  0  0  0
  -18.4387   12.6902   23.1215 H   0  0  0  0  0  0  0  0  0  0  0  0
  -17.5600   12.3884   24.6376 H   0  0  0  0  0  0  0  0  0  0  0  0
  -18.9094   14.0730   24.7470 C   0  0  0  0  0  0  0  0  0  0  0  0
  -19.9159   13.6390   24.7759 H   0  0  0  0  0  0  0  0  0  0  0  0
  -19.0168   15.0155   24.1953 H   0  0  0  0  0  0  0  0  0  0  0  0
  -18.4108   14.3806   26.1057 N   0  0  0  0  0  0  0  0  0  0  0  0
  -18.6871   13.3609   27.1173 C   0  0  0  0  0  0  0  0  0  0  0  0
  -19.3621   12.5839   26.7393 H   0  0  0  0  0  0  0  0  0  0  0  0
  -19.1729   13.8044   27.9933 H   0  0  0  0  0  0  0  0  0  0  0  0
  -17.7602   12.8654   27.4259 H   0  0  0  0  0  0  0  0  0  0  0  0
  -17.7534   15.5628   26.3448 C   0  0  0  0  0  0  0  0  0  0  0  0
  -16.5776   15.6897   25.7121 N   0  0  0  0  0  0  0  0  0  0  0  0
  -16.2904   14.8912   25.1354 H   0  0  0  0  0  0  0  0  0  0  0  0
  -15.7917   16.8030   25.8130 C   0  0  0  0  0  0  0  0  0  0  0  0
  -14.8851   16.7797   25.2599 H   0  0  0  0  0  0  0  0  0  0  0  0
  -16.2089   17.8523   26.5982 C   0  0  0  0  0  0  0  0  0  0  0  0
  -15.6157   18.7268   26.6906 H   0  0  0  0  0  0  0  0  0  0  0  0
  -17.4296   17.7649   27.2904 C   0  0  0  0  0  0  0  0  0  0  0  0
  -17.7518   18.5696   27.9068 H   0  0  0  0  0  0  0  0  0  0  0  0
  -18.1960   16.6302   27.1698 C   0  0  0  0  0  0  0  0  0  0  0  0
  -19.1069   16.5457   27.6999 H   0  0  0  0  0  0  0  0  0  0  0  0
  1  2  1  0
  1  3  1  0
  3  4  1  0
  3  5  1  0
  3  6  1  0
  6  7  1  0
  6  8  1  0
  6  9  1  0
  9 10  1  0
  9 14  1  0
 10 11  1  0
 10 12  1  0
 10 13  1  0
 14 15  1  0
 14 23  2  0
 15 16  1  0
 15 17  2  0
 17 18  1  0
 17 19  1  0
 19 20  1  0
 19 21  2  0
 21 22  1  0
 21 23  1  0
 23 24  1  0
M  END
$$$$
