F584_86
     RDKit          3D

 27 28  0  0  0  0  0  0  0  0999 V2000
  -19.5094   16.3797   26.8576 O   0  0  0  0  0  0  0  0  0  0  0  0
  -18.4758   17.2313   27.3335 C   0  0  0  0  0  0  0  0  0  0  0  0
  -18.9358   17.9858   27.9797 H   0  0  0  0  0  0  0  0  0  0  0  0
  -17.9851   17.7572   26.5073 H   0  0  0  0  0  0  0  0  0  0  0  0
  -17.7514   16.6751   27.9373 H   0  0  0  0  0  0  0  0  0  0  0  0
  -19.1726   15.3533   26.0002 C   0  0  0  0  0  0  0  0  0  0  0  0
  -19.7841   14.1175   26.2549 C   0  0  0  0  0  0  0  0  0  0  0  0
  -19.4477   13.0391   25.4228 C   0  0  0  0  0  0  0  0  0  0  0  0
  -19.9093   11.7055   25.5301 N   0  0  0  0  0  0  0  0  0  0  0  0
  -19.6303   11.0814   24.7635 H   0  0  0  0  0  0  0  0  0  0  0  0
  -20.6505   11.0347   26.4510 C   0  0  0  0  0  0  0  0  0  0  0  0
  -20.7969    9.8659   26.1787 O   0  0  0  0  0  0  0  0  0  0  0  0
  -21.1511   11.6552   27.7085 C   0  0  0  0  0  0  0  0  0  0  0  0
  -21.8958   10.9711   28.1334 H   0  0  0  0  0  0  0  0  0  0  0  0
  -20.3275   11.7323   28.4270 H   0  0  0  0  0  0  0  0  0  0  0  0
  -21.8095   12.9815   27.4293 C   0  0  0  0  0  0  0  0  0  0  0  0
  -22.3885   12.9601   26.4974 H   0  0  0  0  0  0  0  0  0  0  0  0
  -22.5157   13.1974   28.2397 H   0  0  0  0  0  0  0  0  0  0  0  0
  -20.7769   14.0919   27.3975 C   0  0  0  0  0  0  0  0  0  0  0  0
  -20.2130   14.0999   28.3396 H   0  0  0  0  0  0  0  0  0  0  0  0
  -21.3645   15.0190   27.3714 H   0  0  0  0  0  0  0  0  0  0  0  0
  -18.5351   13.1943   24.3767 C   0  0  0  0  0  0  0  0  0  0  0  0
  -18.2923   12.3693   23.7577 H   0  0  0  0  0  0  0  0  0  0  0  0
  -17.9458   14.4292   24.1413 C   0  0  0  0  0  0  0  0  0  0  0  0
  -17.2560   14.5452   23.3453 H   0  0  0  0  0  0  0  0  0  0  0  0
  -18.2628   15.5142   24.9507 C   0  0  0  0  0  0  0  0  0  0  0  0
  -17.8101   16.4517   24.7649 H   0  0  0  0  0  0  0  0  0  0  0  0
  1  2  1  0
  1  6  1  0
  2  3  1  0
  2  4  1  0
  2  5  1  0
  6  7  1  0
  6 26  2  0
  7  8  2  0
  7 19  1  0
  8  9  1  0
  8 22  1  0
  9 10  1  0
  9 11  1  0
 11 12  2  0
 11 13  1  0
 13 14  1  0
 13 15  1  0
 13 16  1  0
 16 17  1  0
 16 18  1  0
 16 19  1  0
 19 20  1  0
 19 21  1  0
 22 23  1  0
 22 24  2  0
 24 25  1  0
 24 26  1  0
 26 27  1  0
M  END
$$$$
