F362_88
     RDKit          3D

 30 31  0  0  0  0  0  0  0  0999 V2000
  -22.5804   12.5802   28.4052 N   0  0  0  0  0  0  0  0  0  0  0  0
  -23.6629   13.5772   28.5140 C   0  0  0  0  0  0  0  0  0  0  0  0
  -24.1071   13.5838   29.5131 H   0  0  0  0  0  0  0  0  0  0  0  0
  -23.2497   14.5872   28.3985 H   0  0  0  0  0  0  0  0  0  0  0  0
  -24.7090   13.3648   27.4300 C   0  0  0  0  0  0  0  0  0  0  0  0
  -25.1367   12.3591   27.4602 H   0  0  0  0  0  0  0  0  0  0  0  0
  -24.2741   13.5046   26.4342 H   0  0  0  0  0  0  0  0  0  0  0  0
  -25.5246   14.0863   27.5444 H   0  0  0  0  0  0  0  0  0  0  0  0
  -22.8700   11.3272   29.1310 C   0  0  0  0  0  0  0  0  0  0  0  0
  -23.9294   11.0608   29.0508 H   0  0  0  0  0  0  0  0  0  0  0  0
  -22.3299   10.4888   28.6725 H   0  0  0  0  0  0  0  0  0  0  0  0
  -22.4552   11.4385   30.5915 C   0  0  0  0  0  0  0  0  0  0  0  0
  -22.9985   12.2377   31.1046 H   0  0  0  0  0  0  0  0  0  0  0  0
  -21.3858   11.6529   30.6818 H   0  0  0  0  0  0  0  0  0  0  0  0
  -22.6593   10.4991   31.1145 H   0  0  0  0  0  0  0  0  0  0  0  0
  -21.3593   12.7903   27.6711 C   0  0  0  0  0  0  0  0  0  0  0  0
  -20.7631   11.7535   26.8648 N   0  0  0  0  0  0  0  0  0  0  0  0
  -21.1735   10.4865   26.6364 N   0  0  0  0  0  0  0  0  0  0  0  0
  -20.2530   10.0331   25.8426 C   0  0  0  0  0  0  0  0  0  0  0  0
  -20.2744    9.0405   25.4641 H   0  0  0  0  0  0  0  0  0  0  0  0
  -19.2754   10.8900   25.5298 N   0  0  0  0  0  0  0  0  0  0  0  0
  -19.5979   11.9747   26.1732 C   0  0  0  0  0  0  0  0  0  0  0  0
  -18.9231   13.1833   26.2014 N   0  0  0  0  0  0  0  0  0  0  0  0
  -19.4201   14.1432   26.9110 C   0  0  0  0  0  0  0  0  0  0  0  0
  -18.7065   15.4664   26.9577 C   0  0  0  0  0  0  0  0  0  0  0  0
  -19.2284   16.1813   27.5979 H   0  0  0  0  0  0  0  0  0  0  0  0
  -18.6422   15.8774   25.9462 H   0  0  0  0  0  0  0  0  0  0  0  0
  -17.6946   15.3165   27.3460 H   0  0  0  0  0  0  0  0  0  0  0  0
  -20.6781   13.9935   27.6888 C   0  0  0  0  0  0  0  0  0  0  0  0
  -21.0371   14.8033   28.2597 H   0  0  0  0  0  0  0  0  0  0  0  0
  1  2  1  0
  1  9  1  0
  1 16  1  0
  2  3  1  0
  2  4  1  0
  2  5  1  0
  5  6  1  0
  5  7  1  0
  5  8  1  0
  9 10  1  0
  9 11  1  0
  9 12  1  0
 12 13  1  0
 12 14  1  0
 12 15  1  0
 16 17  1  0
 16 29  2  0
 17 18  1  0
 17 22  1  0
 18 19  2  0
 19 20  1  0
 19 21  1  0
 21 22  2  0
 22 23  1  0
 23 24  2  0
 24 25  1  0
 24 29  1  0
 25 26  1  0
 25 27  1  0
 25 28  1  0
 29 30  1  0
M  END
$$$$
