F374_39
     RDKit          3D

 18 18  0  0  0  0  0  0  0  0999 V2000
  -19.1636   16.1792   27.5748 O   0  0  0  0  0  0  0  0  0  0  0  0
  -18.7596   15.9074   26.4454 C   0  0  0  0  0  0  0  0  0  0  0  0
  -17.8422   16.7544   25.8865 N   0  0  0  0  0  0  0  0  0  0  0  0
  -17.4660   16.4829   24.9671 H   0  0  0  0  0  0  0  0  0  0  0  0
  -17.3790   17.9666   26.5284 C   0  0  0  0  0  0  0  0  0  0  0  0
  -17.1614   18.7066   25.7503 H   0  0  0  0  0  0  0  0  0  0  0  0
  -18.1958   18.3551   27.1449 H   0  0  0  0  0  0  0  0  0  0  0  0
  -16.1482   17.7149   27.3771 C   0  0  0  0  0  0  0  0  0  0  0  0
  -15.8161   18.6423   27.8532 H   0  0  0  0  0  0  0  0  0  0  0  0
  -16.3579   16.9811   28.1624 H   0  0  0  0  0  0  0  0  0  0  0  0
  -15.3260   17.3262   26.7673 H   0  0  0  0  0  0  0  0  0  0  0  0
  -19.1439   14.7603   25.6605 C   0  0  0  0  0  0  0  0  0  0  0  0
  -18.8276   14.6135   24.3409 N   0  0  0  0  0  0  0  0  0  0  0  0
  -19.3253   13.4709   23.9395 N   0  0  0  0  0  0  0  0  0  0  0  0
  -19.9447   12.9031   24.9853 N   0  0  0  0  0  0  0  0  0  0  0  0
  -20.4230   11.9847   24.9291 H   0  0  0  0  0  0  0  0  0  0  0  0
  -19.8501   13.6738   26.0598 C   0  0  0  0  0  0  0  0  0  0  0  0
  -20.2679   13.4171   26.9989 H   0  0  0  0  0  0  0  0  0  0  0  0
  1  2  2  0
  2  3  1  0
  2 12  1  0
  3  4  1  0
  3  5  1  0
  5  6  1  0
  5  7  1  0
  5  8  1  0
  8  9  1  0
  8 10  1  0
  8 11  1  0
 12 13  1  0
 12 17  2  0
 13 14  2  0
 14 15  1  0
 15 16  1  0
 15 17  1  0
 17 18  1  0
M  END
$$$$
