F741_94
     RDKit          3D

 25 27  0  0  0  0  0  0  0  0999 V2000
  -19.4690   12.1211   29.0966 O   0  0  0  0  0  0  0  0  0  0  0  0
  -20.5455   12.2974   28.5292 C   0  0  0  0  0  0  0  0  0  0  0  0
  -20.5417   12.5629   27.1926 N   0  0  0  0  0  0  0  0  0  0  0  0
  -21.4731   12.6886   26.7632 H   0  0  0  0  0  0  0  0  0  0  0  0
  -19.3709   12.6639   26.3871 C   0  0  0  0  0  0  0  0  0  0  0  0
  -18.5248   12.1187   26.7989 H   0  0  0  0  0  0  0  0  0  0  0  0
  -19.0519   13.9382   25.6530 C   0  0  0  0  0  0  0  0  0  0  0  0
  -19.7503   14.7640   25.7127 H   0  0  0  0  0  0  0  0  0  0  0  0
  -18.0122   14.2373   25.5920 H   0  0  0  0  0  0  0  0  0  0  0  0
  -19.4760   12.7191   24.8882 C   0  0  0  0  0  0  0  0  0  0  0  0
  -18.7270   12.1888   24.3127 H   0  0  0  0  0  0  0  0  0  0  0  0
  -20.4644   12.7162   24.4430 H   0  0  0  0  0  0  0  0  0  0  0  0
  -21.8320   12.2350   29.1830 C   0  0  0  0  0  0  0  0  0  0  0  0
  -23.0332   12.6257   28.6463 C   0  0  0  0  0  0  0  0  0  0  0  0
  -23.9507   12.3740   29.6388 N   0  0  0  0  0  0  0  0  0  0  0  0
  -23.3895   11.8467   30.7592 N   0  0  0  0  0  0  0  0  0  0  0  0
  -22.1134   11.7704   30.4670 C   0  0  0  0  0  0  0  0  0  0  0  0
  -21.3858   11.3937   31.1424 H   0  0  0  0  0  0  0  0  0  0  0  0
  -25.3122   12.6495   29.4604 C   0  0  0  0  0  0  0  0  0  0  0  0
  -25.9414   12.4228   30.2813 H   0  0  0  0  0  0  0  0  0  0  0  0
  -25.6672   13.1793   28.2496 C   0  0  0  0  0  0  0  0  0  0  0  0
  -26.6771   13.4163   28.0383 H   0  0  0  0  0  0  0  0  0  0  0  0
  -24.6805   13.4271   27.2391 C   0  0  0  0  0  0  0  0  0  0  0  0
  -24.9796   13.8384   26.3092 H   0  0  0  0  0  0  0  0  0  0  0  0
  -23.4128   13.1676   27.4111 N   0  0  0  0  0  0  0  0  0  0  0  0
  1  2  2  0
  2  3  1  0
  2 13  1  0
  3  4  1  0
  3  5  1  0
  5  6  1  0
  5  7  1  0
  5 10  1  0
  7  8  1  0
  7  9  1  0
  7 10  1  0
 10 11  1  0
 10 12  1  0
 13 14  2  0
 13 17  1  0
 14 15  1  0
 14 25  1  0
 15 16  1  0
 15 19  1  0
 16 17  2  0
 17 18  1  0
 19 20  1  0
 19 21  2  0
 21 22  1  0
 21 23  1  0
 23 24  1  0
 23 25  2  0
M  END
$$$$
