F600_98
     RDKit          3D

 16 16  0  0  0  0  0  0  0  0999 V2000
  -22.3481   12.6769   27.7482 O   0  0  0  0  0  0  0  0  0  0  0  0
  -20.9700   12.9707   27.9775 C   0  0  0  0  0  0  0  0  0  0  0  0
  -20.8643   14.0155   28.2944 H   0  0  0  0  0  0  0  0  0  0  0  0
  -20.5725   12.3207   28.7654 H   0  0  0  0  0  0  0  0  0  0  0  0
  -20.2419   12.7539   26.6948 C   0  0  0  0  0  0  0  0  0  0  0  0
  -19.3203   14.0090   25.9810 S   0  0  0  0  0  0  0  0  0  0  0  0
  -18.9746   12.9051   24.7339 C   0  0  0  0  0  0  0  0  0  0  0  0
  -18.1941   13.2698   23.7027 N   0  0  0  0  0  0  0  0  0  0  0  0
  -17.7888   14.1947   23.6320 H   0  0  0  0  0  0  0  0  0  0  0  0
  -17.9889   12.6123   22.9600 H   0  0  0  0  0  0  0  0  0  0  0  0
  -19.5089   11.7302   24.8542 N   0  0  0  0  0  0  0  0  0  0  0  0
  -20.2542   11.6488   26.0121 N   0  0  0  0  0  0  0  0  0  0  0  0
  -22.6327   11.3019   27.9634 C   0  0  0  0  0  0  0  0  0  0  0  0
  -23.6969   11.1366   27.7737 H   0  0  0  0  0  0  0  0  0  0  0  0
  -22.4153   11.0228   28.9987 H   0  0  0  0  0  0  0  0  0  0  0  0
  -22.0544   10.6785   27.2746 H   0  0  0  0  0  0  0  0  0  0  0  0
  1  2  1  0
  1 13  1  0
  2  3  1  0
  2  4  1  0
  2  5  1  0
  5  6  1  0
  5 12  2  0
  6  7  1  0
  7  8  1  0
  7 11  2  0
  8  9  1  0
  8 10  1  0
 11 12  1  0
 13 14  1  0
 13 15  1  0
 13 16  1  0
M  END
$$$$
