F374_36
     RDKit          3D

 18 18  0  0  0  0  0  0  0  0999 V2000
  -21.7155   13.1793   28.8521 O   0  0  0  0  0  0  0  0  0  0  0  0
  -21.3260   12.4389   27.9506 C   0  0  0  0  0  0  0  0  0  0  0  0
  -22.2622   11.6544   27.3344 N   0  0  0  0  0  0  0  0  0  0  0  0
  -21.9350   11.0852   26.5411 H   0  0  0  0  0  0  0  0  0  0  0  0
  -23.6546   11.6133   27.7288 C   0  0  0  0  0  0  0  0  0  0  0  0
  -24.1084   10.7146   27.2964 H   0  0  0  0  0  0  0  0  0  0  0  0
  -23.6939   11.5203   28.8188 H   0  0  0  0  0  0  0  0  0  0  0  0
  -24.4012   12.8525   27.2756 C   0  0  0  0  0  0  0  0  0  0  0  0
  -25.4496   12.8013   27.5844 H   0  0  0  0  0  0  0  0  0  0  0  0
  -23.9589   13.7558   27.7084 H   0  0  0  0  0  0  0  0  0  0  0  0
  -24.3668   12.9525   26.1857 H   0  0  0  0  0  0  0  0  0  0  0  0
  -19.9733   12.3376   27.4613 C   0  0  0  0  0  0  0  0  0  0  0  0
  -18.9441   13.0978   27.9364 N   0  0  0  0  0  0  0  0  0  0  0  0
  -17.8639   12.7559   27.2802 N   0  0  0  0  0  0  0  0  0  0  0  0
  -18.2014   11.7958   26.4062 N   0  0  0  0  0  0  0  0  0  0  0  0
  -17.5201   11.3515   25.7627 H   0  0  0  0  0  0  0  0  0  0  0  0
  -19.4944   11.5168   26.4940 C   0  0  0  0  0  0  0  0  0  0  0  0
  -19.9743   10.7866   25.8951 H   0  0  0  0  0  0  0  0  0  0  0  0
  1  2  2  0
  2  3  1  0
  2 12  1  0
  3  4  1  0
  3  5  1  0
  5  6  1  0
  5  7  1  0
  5  8  1  0
  8  9  1  0
  8 10  1  0
  8 11  1  0
 12 13  1  0
 12 17  2  0
 13 14  2  0
 14 15  1  0
 15 16  1  0
 15 17  1  0
 17 18  1  0
M  END
$$$$
