F421_40
     RDKit          3D

 19 19  0  0  0  0  0  0  0  0999 V2000
  -24.4451   11.8685   30.5484 O   0  0  0  0  0  0  0  0  0  0  0  0
  -24.4634   12.9658   29.9954 C   0  0  0  0  0  0  0  0  0  0  0  0
  -24.1679   14.0714   30.7906 N   0  0  0  0  0  0  0  0  0  0  0  0
  -24.1700   13.9432   32.2415 C   0  0  0  0  0  0  0  0  0  0  0  0
  -24.7625   14.7595   32.6673 H   0  0  0  0  0  0  0  0  0  0  0  0
  -23.1389   14.0155   32.5994 H   0  0  0  0  0  0  0  0  0  0  0  0
  -24.5975   12.9947   32.5753 H   0  0  0  0  0  0  0  0  0  0  0  0
  -23.8148   15.3882   30.2766 C   0  0  0  0  0  0  0  0  0  0  0  0
  -22.9911   15.7962   30.8715 H   0  0  0  0  0  0  0  0  0  0  0  0
  -24.6853   16.0441   30.3682 H   0  0  0  0  0  0  0  0  0  0  0  0
  -23.4860   15.3432   29.2364 H   0  0  0  0  0  0  0  0  0  0  0  0
  -24.7692   13.1172   28.5845 C   0  0  0  0  0  0  0  0  0  0  0  0
  -24.4681   12.1915   27.6305 C   0  0  0  0  0  0  0  0  0  0  0  0
  -23.9709   11.2587   27.6944 H   0  0  0  0  0  0  0  0  0  0  0  0
  -24.9483   12.6794   26.4744 N   0  0  0  0  0  0  0  0  0  0  0  0
  -24.8768   12.2056   25.5538 H   0  0  0  0  0  0  0  0  0  0  0  0
  -25.5577   13.8847   26.6413 N   0  0  0  0  0  0  0  0  0  0  0  0
  -25.4527   14.1350   27.9155 C   0  0  0  0  0  0  0  0  0  0  0  0
  -25.8531   15.0088   28.3662 H   0  0  0  0  0  0  0  0  0  0  0  0
  1  2  2  0
  2  3  1  0
  2 12  1  0
  3  4  1  0
  3  8  1  0
  4  5  1  0
  4  6  1  0
  4  7  1  0
  8  9  1  0
  8 10  1  0
  8 11  1  0
 12 13  2  0
 12 18  1  0
 13 14  1  0
 13 15  1  0
 15 16  1  0
 15 17  1  0
 17 18  2  0
 18 19  1  0
M  END
$$$$
