F366_65
     RDKit          3D

 22 22  0  0  0  0  0  0  0  0999 V2000
  -19.1324   15.0781   24.5897 O   0  0  0  0  0  0  0  0  0  0  0  0
  -18.7840   15.2065   23.6904 H   0  0  0  0  0  0  0  0  0  0  0  0
  -18.0401   14.6598   25.4033 C   0  0  0  0  0  0  0  0  0  0  0  0
  -17.6022   13.7544   24.9692 H   0  0  0  0  0  0  0  0  0  0  0  0
  -17.2911   15.4579   25.3864 H   0  0  0  0  0  0  0  0  0  0  0  0
  -18.5133   14.4253   26.8365 C   0  0  0  0  0  0  0  0  0  0  0  0
  -17.6426   14.1952   27.4629 H   0  0  0  0  0  0  0  0  0  0  0  0
  -18.9701   15.3404   27.2350 H   0  0  0  0  0  0  0  0  0  0  0  0
  -19.5006   13.3063   26.9474 C   0  0  0  0  0  0  0  0  0  0  0  0
  -20.7188   13.3461   27.5326 C   0  0  0  0  0  0  0  0  0  0  0  0
  -21.2356   14.1256   28.0278 H   0  0  0  0  0  0  0  0  0  0  0  0
  -21.2437   12.1102   27.3830 N   0  0  0  0  0  0  0  0  0  0  0  0
  -22.5337   11.6310   27.8297 C   0  0  0  0  0  0  0  0  0  0  0  0
  -23.3009   12.1184   27.2186 H   0  0  0  0  0  0  0  0  0  0  0  0
  -22.5767   10.5551   27.6289 H   0  0  0  0  0  0  0  0  0  0  0  0
  -22.7716   11.9152   29.3020 C   0  0  0  0  0  0  0  0  0  0  0  0
  -22.7320   12.9913   29.5075 H   0  0  0  0  0  0  0  0  0  0  0  0
  -22.0149   11.4290   29.9269 H   0  0  0  0  0  0  0  0  0  0  0  0
  -23.7556   11.5455   29.6063 H   0  0  0  0  0  0  0  0  0  0  0  0
  -20.3978   11.2794   26.7242 N   0  0  0  0  0  0  0  0  0  0  0  0
  -19.3483   12.0103   26.4623 C   0  0  0  0  0  0  0  0  0  0  0  0
  -18.4936   11.6450   25.9474 H   0  0  0  0  0  0  0  0  0  0  0  0
  1  2  1  0
  1  3  1  0
  3  4  1  0
  3  5  1  0
  3  6  1  0
  6  7  1  0
  6  8  1  0
  6  9  1  0
  9 10  2  0
  9 21  1  0
 10 11  1  0
 10 12  1  0
 12 13  1  0
 12 20  1  0
 13 14  1  0
 13 15  1  0
 13 16  1  0
 16 17  1  0
 16 18  1  0
 16 19  1  0
 20 21  2  0
 21 22  1  0
M  END
$$$$
