F618_16
     RDKit          3D

 26 26  0  0  0  0  0  0  0  0999 V2000
  -21.9076   10.3461   27.0975 F   0  0  0  0  0  0  0  0  0  0  0  0
  -21.2253   11.5004   27.1567 C   0  0  0  0  0  0  0  0  0  0  0  0
  -21.6845   12.6039   27.8990 C   0  0  0  0  0  0  0  0  0  0  0  0
  -22.8714   12.5550   28.6475 N   0  0  0  0  0  0  0  0  0  0  0  0
  -23.9339   13.5335   28.3158 C   0  0  0  0  0  0  0  0  0  0  0  0
  -24.0425   14.6232   29.3985 C   0  0  0  0  0  0  0  0  0  0  0  0
  -23.0535   15.0348   29.6273 H   0  0  0  0  0  0  0  0  0  0  0  0
  -24.4571   14.2253   30.3300 H   0  0  0  0  0  0  0  0  0  0  0  0
  -24.8777   15.7008   28.9802 O   0  0  0  0  0  0  0  0  0  0  0  0
  -25.7647   15.3084   28.8899 H   0  0  0  0  0  0  0  0  0  0  0  0
  -25.2897   12.8618   28.0655 C   0  0  0  0  0  0  0  0  0  0  0  0
  -25.9958   13.5865   27.6445 H   0  0  0  0  0  0  0  0  0  0  0  0
  -25.7432   12.4728   28.9819 H   0  0  0  0  0  0  0  0  0  0  0  0
  -25.1934   12.0370   27.3526 H   0  0  0  0  0  0  0  0  0  0  0  0
  -23.0465   11.5695   29.7045 C   0  0  0  0  0  0  0  0  0  0  0  0
  -23.2484   10.5798   29.2819 H   0  0  0  0  0  0  0  0  0  0  0  0
  -23.8762   11.8175   30.3729 H   0  0  0  0  0  0  0  0  0  0  0  0
  -22.1625   11.5199   30.3516 H   0  0  0  0  0  0  0  0  0  0  0  0
  -20.9963   13.7553   27.9340 N   0  0  0  0  0  0  0  0  0  0  0  0
  -19.8601   13.8456   27.2315 C   0  0  0  0  0  0  0  0  0  0  0  0
  -19.3320   14.7638   27.2664 H   0  0  0  0  0  0  0  0  0  0  0  0
  -19.3618   12.7865   26.4702 C   0  0  0  0  0  0  0  0  0  0  0  0
  -18.4589   12.9025   25.9297 H   0  0  0  0  0  0  0  0  0  0  0  0
  -20.0546   11.5793   26.4267 C   0  0  0  0  0  0  0  0  0  0  0  0
  -19.7060   10.7533   25.8629 H   0  0  0  0  0  0  0  0  0  0  0  0
  -23.6933   14.0277   27.3648 H   0  0  0  0  0  0  0  0  0  0  0  0
  1  2  1  0
  2  3  1  0
  2 24  2  0
  3  4  1  0
  3 19  2  0
  4  5  1  0
  4 15  1  0
  5  6  1  0
  5 11  1  0
  5 26  1  0
  6  7  1  0
  6  8  1  0
  6  9  1  0
  9 10  1  0
 11 12  1  0
 11 13  1  0
 11 14  1  0
 15 16  1  0
 15 17  1  0
 15 18  1  0
 19 20  1  0
 20 21  1  0
 20 22  2  0
 22 23  1  0
 22 24  1  0
 24 25  1  0
M  END
$$$$
