F584_51
     RDKit          3D

 27 28  0  0  0  0  0  0  0  0999 V2000
  -21.6906   14.3402   28.3121 O   0  0  0  0  0  0  0  0  0  0  0  0
  -22.8692   14.3275   29.1062 C   0  0  0  0  0  0  0  0  0  0  0  0
  -22.9947   15.3275   29.5336 H   0  0  0  0  0  0  0  0  0  0  0  0
  -22.7778   13.6206   29.9380 H   0  0  0  0  0  0  0  0  0  0  0  0
  -23.7541   14.1137   28.4978 H   0  0  0  0  0  0  0  0  0  0  0  0
  -21.3109   13.1742   27.6809 C   0  0  0  0  0  0  0  0  0  0  0  0
  -20.1816   13.2652   26.8547 C   0  0  0  0  0  0  0  0  0  0  0  0
  -19.7776   12.1081   26.1718 C   0  0  0  0  0  0  0  0  0  0  0  0
  -18.7017   11.9904   25.2599 N   0  0  0  0  0  0  0  0  0  0  0  0
  -18.4987   11.0352   24.9414 H   0  0  0  0  0  0  0  0  0  0  0  0
  -17.8553   12.8813   24.6791 C   0  0  0  0  0  0  0  0  0  0  0  0
  -17.0774   12.3627   23.9124 O   0  0  0  0  0  0  0  0  0  0  0  0
  -17.9394   14.3519   24.8961 C   0  0  0  0  0  0  0  0  0  0  0  0
  -17.0137   14.7908   24.5042 H   0  0  0  0  0  0  0  0  0  0  0  0
  -18.7703   14.7577   24.3085 H   0  0  0  0  0  0  0  0  0  0  0  0
  -18.0493   14.6739   26.3640 C   0  0  0  0  0  0  0  0  0  0  0  0
  -17.4227   14.0109   26.9740 H   0  0  0  0  0  0  0  0  0  0  0  0
  -17.6850   15.6955   26.5249 H   0  0  0  0  0  0  0  0  0  0  0  0
  -19.4961   14.6145   26.8149 C   0  0  0  0  0  0  0  0  0  0  0  0
  -20.1043   15.2879   26.1967 H   0  0  0  0  0  0  0  0  0  0  0  0
  -19.4899   15.0339   27.8295 H   0  0  0  0  0  0  0  0  0  0  0  0
  -20.4778   10.9076   26.3126 C   0  0  0  0  0  0  0  0  0  0  0  0
  -20.1589   10.0430   25.7896 H   0  0  0  0  0  0  0  0  0  0  0  0
  -21.5907   10.8410   27.1401 C   0  0  0  0  0  0  0  0  0  0  0  0
  -22.1185    9.9285   27.2476 H   0  0  0  0  0  0  0  0  0  0  0  0
  -22.0112   11.9731   27.8289 C   0  0  0  0  0  0  0  0  0  0  0  0
  -22.8595   11.9143   28.4576 H   0  0  0  0  0  0  0  0  0  0  0  0
  1  2  1  0
  1  6  1  0
  2  3  1  0
  2  4  1  0
  2  5  1  0
  6  7  1  0
  6 26  2  0
  7  8  2  0
  7 19  1  0
  8  9  1  0
  8 22  1  0
  9 10  1  0
  9 11  1  0
 11 12  2  0
 11 13  1  0
 13 14  1  0
 13 15  1  0
 13 16  1  0
 16 17  1  0
 16 18  1  0
 16 19  1  0
 19 20  1  0
 19 21  1  0
 22 23  1  0
 22 24  2  0
 24 25  1  0
 24 26  1  0
 26 27  1  0
M  END
$$$$
