F274_6
     RDKit          3D

 26 27  0  0  0  0  0  0  0  0999 V2000
  -23.6934   12.2281   26.3083 O   0  0  0  0  0  0  0  0  0  0  0  0
  -23.8414   12.9878   27.2740 C   0  0  0  0  0  0  0  0  0  0  0  0
  -22.8182   13.1072   28.2242 N   0  0  0  0  0  0  0  0  0  0  0  0
  -21.5672   12.3684   28.0740 C   0  0  0  0  0  0  0  0  0  0  0  0
  -21.1323   12.2135   29.0686 H   0  0  0  0  0  0  0  0  0  0  0  0
  -21.7697   11.3801   27.6471 H   0  0  0  0  0  0  0  0  0  0  0  0
  -20.6317   13.1294   27.2167 C   0  0  0  0  0  0  0  0  0  0  0  0
  -20.2993   14.3606   27.6112 O   0  0  0  0  0  0  0  0  0  0  0  0
  -19.4611   14.9179   26.7275 N   0  0  0  0  0  0  0  0  0  0  0  0
  -19.2667   14.0548   25.7911 C   0  0  0  0  0  0  0  0  0  0  0  0
  -18.3786   14.3513   24.6483 C   0  0  0  0  0  0  0  0  0  0  0  0
  -18.4867   13.5991   23.8599 H   0  0  0  0  0  0  0  0  0  0  0  0
  -17.3313   14.3561   24.9689 H   0  0  0  0  0  0  0  0  0  0  0  0
  -18.6121   15.3287   24.2137 H   0  0  0  0  0  0  0  0  0  0  0  0
  -19.9941   12.9039   26.0577 C   0  0  0  0  0  0  0  0  0  0  0  0
  -20.0432   12.0241   25.4701 H   0  0  0  0  0  0  0  0  0  0  0  0
  -22.9165   13.9175   29.3371 N   0  0  0  0  0  0  0  0  0  0  0  0
  -23.9900   14.6153   29.5407 C   0  0  0  0  0  0  0  0  0  0  0  0
  -24.0760   15.4886   30.7604 C   0  0  0  0  0  0  0  0  0  0  0  0
  -23.2276   16.1804   30.7706 H   0  0  0  0  0  0  0  0  0  0  0  0
  -24.0335   14.8607   31.6558 H   0  0  0  0  0  0  0  0  0  0  0  0
  -25.0032   16.0665   30.7766 H   0  0  0  0  0  0  0  0  0  0  0  0
  -25.0814   14.5629   28.6256 C   0  0  0  0  0  0  0  0  0  0  0  0
  -25.9438   15.1476   28.8178 H   0  0  0  0  0  0  0  0  0  0  0  0
  -25.0101   13.7705   27.5175 C   0  0  0  0  0  0  0  0  0  0  0  0
  -25.8027   13.7096   26.8193 H   0  0  0  0  0  0  0  0  0  0  0  0
  1  2  2  0
  2  3  1  0
  2 25  1  0
  3  4  1  0
  3 17  1  0
  4  5  1  0
  4  6  1  0
  4  7  1  0
  7  8  1  0
  7 15  2  0
  8  9  1  0
  9 10  2  0
 10 11  1  0
 10 15  1  0
 11 12  1  0
 11 13  1  0
 11 14  1  0
 15 16  1  0
 17 18  2  0
 18 19  1  0
 18 23  1  0
 19 20  1  0
 19 21  1  0
 19 22  1  0
 23 24  1  0
 23 25  2  0
 25 26  1  0
M  END
$$$$
