F95_23
     RDKit          3D

 27 27  0  0  0  0  0  0  0  0999 V2000
  -18.8745   13.3494   26.5706 S   0  0  0  0  0  0  0  0  0  0  0  0
  -17.9945   12.5364   27.3812 O   0  0  0  0  0  0  0  0  0  0  0  0
  -20.3119   13.3136   26.7291 O   0  0  0  0  0  0  0  0  0  0  0  0
  -18.5457   12.9773   24.9592 N   0  0  0  0  0  0  0  0  0  0  0  0
  -18.4549   11.9704   24.8050 H   0  0  0  0  0  0  0  0  0  0  0  0
  -17.7643   13.5234   24.5880 H   0  0  0  0  0  0  0  0  0  0  0  0
  -18.3408   15.0210   26.6622 C   0  0  0  0  0  0  0  0  0  0  0  0
  -17.2636   15.3812   27.4772 C   0  0  0  0  0  0  0  0  0  0  0  0
  -16.7445   14.6302   28.0213 H   0  0  0  0  0  0  0  0  0  0  0  0
  -16.8731   16.7105   27.5898 C   0  0  0  0  0  0  0  0  0  0  0  0
  -16.0561   16.9670   28.2165 H   0  0  0  0  0  0  0  0  0  0  0  0
  -17.5561   17.7049   26.8923 C   0  0  0  0  0  0  0  0  0  0  0  0
  -17.1792   19.1500   27.0693 C   0  0  0  0  0  0  0  0  0  0  0  0
  -16.6518   19.3026   28.0191 H   0  0  0  0  0  0  0  0  0  0  0  0
  -18.0717   19.7873   27.0937 H   0  0  0  0  0  0  0  0  0  0  0  0
  -16.3266   19.5882   25.9853 N   0  0  0  0  0  0  0  0  0  0  0  0
  -16.6133   20.4009   25.4673 H   0  0  0  0  0  0  0  0  0  0  0  0
  -15.2037   18.9595   25.6658 C   0  0  0  0  0  0  0  0  0  0  0  0
  -14.8191   17.9696   26.2703 O   0  0  0  0  0  0  0  0  0  0  0  0
  -14.4385   19.5596   24.5212 C   0  0  0  0  0  0  0  0  0  0  0  0
  -15.0953   19.6855   23.6556 H   0  0  0  0  0  0  0  0  0  0  0  0
  -14.0382   20.5333   24.8179 H   0  0  0  0  0  0  0  0  0  0  0  0
  -13.6117   18.8999   24.2440 H   0  0  0  0  0  0  0  0  0  0  0  0
  -18.6368   17.3554   26.0865 C   0  0  0  0  0  0  0  0  0  0  0  0
  -19.1723   18.1068   25.5622 H   0  0  0  0  0  0  0  0  0  0  0  0
  -19.0276   16.0248   25.9750 C   0  0  0  0  0  0  0  0  0  0  0  0
  -19.8610   15.7688   25.3681 H   0  0  0  0  0  0  0  0  0  0  0  0
  1  2  2  0
  1  3  2  0
  1  4  1  0
  1  7  1  0
  4  5  1  0
  4  6  1  0
  7  8  1  0
  7 26  2  0
  8  9  1  0
  8 10  2  0
 10 11  1  0
 10 12  1  0
 12 13  1  0
 12 24  2  0
 13 14  1  0
 13 15  1  0
 13 16  1  0
 16 17  1  0
 16 18  1  0
 18 19  2  0
 18 20  1  0
 20 21  1  0
 20 22  1  0
 20 23  1  0
 24 25  1  0
 24 26  1  0
 26 27  1  0
M  END
$$$$
