F535_89
     RDKit          3D

 23 24  0  0  0  0  0  0  0  0999 V2000
  -18.4570   12.9901   24.5833 N   0  0  0  0  0  0  0  0  0  0  0  0
  -17.8731   12.1413   24.6334 H   0  0  0  0  0  0  0  0  0  0  0  0
  -19.2360   12.7222   23.9653 H   0  0  0  0  0  0  0  0  0  0  0  0
  -19.0170   13.2465   25.9503 C   0  0  0  0  0  0  0  0  0  0  0  0
  -18.1666   13.2935   26.6369 H   0  0  0  0  0  0  0  0  0  0  0  0
  -19.5181   14.2196   25.9091 H   0  0  0  0  0  0  0  0  0  0  0  0
  -19.9637   12.1788   26.3446 C   0  0  0  0  0  0  0  0  0  0  0  0
  -20.9753   12.3151   27.2120 N   0  0  0  0  0  0  0  0  0  0  0  0
  -21.5823   11.1085   27.2886 C   0  0  0  0  0  0  0  0  0  0  0  0
  -20.9601   10.2728   26.4890 N   0  0  0  0  0  0  0  0  0  0  0  0
  -19.9469   10.9557   25.8978 N   0  0  0  0  0  0  0  0  0  0  0  0
  -22.7070   10.9577   28.1539 C   0  0  0  0  0  0  0  0  0  0  0  0
  -23.1821   10.0125   28.2164 H   0  0  0  0  0  0  0  0  0  0  0  0
  -23.1504   12.0233   28.8835 C   0  0  0  0  0  0  0  0  0  0  0  0
  -23.9850   11.9268   29.5317 H   0  0  0  0  0  0  0  0  0  0  0  0
  -22.4851   13.2846   28.7740 C   0  0  0  0  0  0  0  0  0  0  0  0
  -22.8445   14.1033   29.3471 H   0  0  0  0  0  0  0  0  0  0  0  0
  -21.4063   13.4335   27.9470 C   0  0  0  0  0  0  0  0  0  0  0  0
  -20.8584   14.3281   27.8068 H   0  0  0  0  0  0  0  0  0  0  0  0
  -17.6880   14.1099   23.9917 C   0  0  0  0  0  0  0  0  0  0  0  0
  -16.8405   14.3285   24.6446 H   0  0  0  0  0  0  0  0  0  0  0  0
  -18.3525   14.9722   23.9003 H   0  0  0  0  0  0  0  0  0  0  0  0
  -17.3418   13.7870   23.0072 H   0  0  0  0  0  0  0  0  0  0  0  0
  1  2  1  0
  1  3  1  0
  1  4  1  0
  1 20  1  0
  4  5  1  0
  4  6  1  0
  4  7  1  0
  7  8  1  0
  7 11  2  0
  8  9  1  0
  8 18  1  0
  9 10  2  0
  9 12  1  0
 10 11  1  0
 12 13  1  0
 12 14  2  0
 14 15  1  0
 14 16  1  0
 16 17  1  0
 16 18  2  0
 18 19  1  0
 20 21  1  0
 20 22  1  0
 20 23  1  0
M  END
$$$$
