F199_74
     RDKit          3D

 25 26  0  0  0  0  0  0  0  0999 V2000
  -21.4023   11.3887   27.5333 O   0  0  0  0  0  0  0  0  0  0  0  0
  -21.8667   12.4643   27.9050 C   0  0  0  0  0  0  0  0  0  0  0  0
  -21.0842   13.5914   27.8378 N   0  0  0  0  0  0  0  0  0  0  0  0
  -21.5558   14.4444   28.1695 H   0  0  0  0  0  0  0  0  0  0  0  0
  -19.7794   13.6888   27.3890 C   0  0  0  0  0  0  0  0  0  0  0  0
  -19.1894   14.8800   27.1619 C   0  0  0  0  0  0  0  0  0  0  0  0
  -19.5383   15.8731   27.2604 H   0  0  0  0  0  0  0  0  0  0  0  0
  -17.9377   14.5721   26.7406 N   0  0  0  0  0  0  0  0  0  0  0  0
  -16.8843   15.4777   26.3611 C   0  0  0  0  0  0  0  0  0  0  0  0
  -17.2420   16.5070   26.4408 H   0  0  0  0  0  0  0  0  0  0  0  0
  -16.5975   15.2611   25.3289 H   0  0  0  0  0  0  0  0  0  0  0  0
  -16.0377   15.3238   27.0348 H   0  0  0  0  0  0  0  0  0  0  0  0
  -17.7227   13.2303   26.6953 N   0  0  0  0  0  0  0  0  0  0  0  0
  -18.8492   12.6932   27.0925 C   0  0  0  0  0  0  0  0  0  0  0  0
  -19.0068   11.6485   27.1692 H   0  0  0  0  0  0  0  0  0  0  0  0
  -23.2070   12.6529   28.4224 C   0  0  0  0  0  0  0  0  0  0  0  0
  -24.0562   11.6633   28.5449 N   0  0  0  0  0  0  0  0  0  0  0  0
  -25.1808   12.1695   29.0423 O   0  0  0  0  0  0  0  0  0  0  0  0
  -25.0562   13.4858   29.2397 C   0  0  0  0  0  0  0  0  0  0  0  0
  -26.2219   14.1959   29.7889 C   0  0  0  0  0  0  0  0  0  0  0  0
  -26.0147   15.2643   29.9019 H   0  0  0  0  0  0  0  0  0  0  0  0
  -26.4867   13.7946   30.7719 H   0  0  0  0  0  0  0  0  0  0  0  0
  -27.0863   14.0851   29.1277 H   0  0  0  0  0  0  0  0  0  0  0  0
  -23.8196   13.8296   28.8574 C   0  0  0  0  0  0  0  0  0  0  0  0
  -23.3899   14.7973   28.8807 H   0  0  0  0  0  0  0  0  0  0  0  0
  1  2  2  0
  2  3  1  0
  2 16  1  0
  3  4  1  0
  3  5  1  0
  5  6  2  0
  5 14  1  0
  6  7  1  0
  6  8  1  0
  8  9  1  0
  8 13  1  0
  9 10  1  0
  9 11  1  0
  9 12  1  0
 13 14  2  0
 14 15  1  0
 16 17  2  0
 16 24  1  0
 17 18  1  0
 18 19  1  0
 19 20  1  0
 19 24  2  0
 20 21  1  0
 20 22  1  0
 20 23  1  0
 24 25  1  0
M  END
$$$$
