F501_5
     RDKit          3D

 23 24  0  0  0  0  0  0  0  0999 V2000
  -22.6702   10.9763   27.6098 C   0  0  0  0  0  0  0  0  0  0  0  0
  -22.6714   10.7157   28.6714 H   0  0  0  0  0  0  0  0  0  0  0  0
  -21.7027   11.3984   27.3283 H   0  0  0  0  0  0  0  0  0  0  0  0
  -22.8825   10.0832   27.0174 H   0  0  0  0  0  0  0  0  0  0  0  0
  -23.6856   11.9596   27.3482 N   0  0  0  0  0  0  0  0  0  0  0  0
  -24.0805   12.1903   26.0875 N   0  0  0  0  0  0  0  0  0  0  0  0
  -24.9941   13.1314   26.1191 N   0  0  0  0  0  0  0  0  0  0  0  0
  -25.1630   13.4759   27.4123 C   0  0  0  0  0  0  0  0  0  0  0  0
  -24.3560   12.7423   28.1953 C   0  0  0  0  0  0  0  0  0  0  0  0
  -24.2608   12.8035   29.6774 C   0  0  0  0  0  0  0  0  0  0  0  0
  -24.7645   11.9184   30.0868 H   0  0  0  0  0  0  0  0  0  0  0  0
  -23.2161   12.7508   29.9986 H   0  0  0  0  0  0  0  0  0  0  0  0
  -24.9790   14.0688   30.2069 C   0  0  0  0  0  0  0  0  0  0  0  0
  -24.0131   15.2561   30.2721 C   0  0  0  0  0  0  0  0  0  0  0  0
  -23.1291   15.3207   29.3891 O   0  0  0  0  0  0  0  0  0  0  0  0
  -24.1386   16.0597   31.2211 O   0  0  0  0  0  0  0  0  0  0  0  0
  -26.2900   14.3664   29.4335 C   0  0  0  0  0  0  0  0  0  0  0  0
  -26.9843   13.5334   29.6106 H   0  0  0  0  0  0  0  0  0  0  0  0
  -26.7814   15.2650   29.8249 H   0  0  0  0  0  0  0  0  0  0  0  0
  -26.0853   14.5200   27.9096 C   0  0  0  0  0  0  0  0  0  0  0  0
  -25.6674   15.5070   27.6813 H   0  0  0  0  0  0  0  0  0  0  0  0
  -27.0534   14.4502   27.4005 H   0  0  0  0  0  0  0  0  0  0  0  0
  -25.2495   13.8805   31.2550 H   0  0  0  0  0  0  0  0  0  0  0  0
  1  2  1  0
  1  3  1  0
  1  4  1  0
  1  5  1  0
  5  6  1  0
  5  9  1  0
  6  7  2  0
  7  8  1  0
  8  9  2  0
  8 20  1  0
  9 10  1  0
 10 11  1  0
 10 12  1  0
 10 13  1  0
 13 14  1  0
 13 17  1  0
 13 23  1  0
 14 15  1  0
 14 16  2  0
 17 18  1  0
 17 19  1  0
 17 20  1  0
 20 21  1  0
 20 22  1  0
M  END
$$$$
