F467_14
     RDKit          3D

 24 24  0  0  0  0  0  0  0  0999 V2000
  -14.4943   19.2400   27.6687 O   0  0  0  0  0  0  0  0  0  0  0  0
  -13.7833   19.3253   28.3288 H   0  0  0  0  0  0  0  0  0  0  0  0
  -14.0295   18.3419   26.6679 C   0  0  0  0  0  0  0  0  0  0  0  0
  -13.1087   18.7463   26.2367 H   0  0  0  0  0  0  0  0  0  0  0  0
  -13.7988   17.3905   27.1571 H   0  0  0  0  0  0  0  0  0  0  0  0
  -15.0998   18.1174   25.5919 C   0  0  0  0  0  0  0  0  0  0  0  0
  -14.7197   17.4767   24.7875 H   0  0  0  0  0  0  0  0  0  0  0  0
  -15.3171   19.0817   25.1152 H   0  0  0  0  0  0  0  0  0  0  0  0
  -16.3564   17.5847   26.1635 N   0  0  0  0  0  0  0  0  0  0  0  0
  -16.3555   16.1489   26.4422 C   0  0  0  0  0  0  0  0  0  0  0  0
  -15.4632   15.6556   26.0385 H   0  0  0  0  0  0  0  0  0  0  0  0
  -17.2224   15.6632   25.9810 H   0  0  0  0  0  0  0  0  0  0  0  0
  -16.3675   15.9676   27.5224 H   0  0  0  0  0  0  0  0  0  0  0  0
  -17.4214   18.4242   26.3827 C   0  0  0  0  0  0  0  0  0  0  0  0
  -17.0945   19.6320   26.8656 N   0  0  0  0  0  0  0  0  0  0  0  0
  -16.0951   19.7925   27.0330 H   0  0  0  0  0  0  0  0  0  0  0  0
  -18.0166   20.6060   27.1273 C   0  0  0  0  0  0  0  0  0  0  0  0
  -17.6281   21.5198   27.5049 H   0  0  0  0  0  0  0  0  0  0  0  0
  -19.3479   20.3529   26.8930 C   0  0  0  0  0  0  0  0  0  0  0  0
  -20.0811   21.0942   27.0879 H   0  0  0  0  0  0  0  0  0  0  0  0
  -19.7438   19.0985   26.3962 C   0  0  0  0  0  0  0  0  0  0  0  0
  -20.7731   18.8944   26.2227 H   0  0  0  0  0  0  0  0  0  0  0  0
  -18.7919   18.1390   26.1454 C   0  0  0  0  0  0  0  0  0  0  0  0
  -19.0793   17.1861   25.7889 H   0  0  0  0  0  0  0  0  0  0  0  0
  1  2  1  0
  1  3  1  0
  3  4  1  0
  3  5  1  0
  3  6  1  0
  6  7  1  0
  6  8  1  0
  6  9  1  0
  9 10  1  0
  9 14  1  0
 10 11  1  0
 10 12  1  0
 10 13  1  0
 14 15  1  0
 14 23  2  0
 15 16  1  0
 15 17  2  0
 17 18  1  0
 17 19  1  0
 19 20  1  0
 19 21  2  0
 21 22  1  0
 21 23  1  0
 23 24  1  0
M  END
$$$$
