F488_51
     RDKit          3D

 39 40  0  0  0  0  0  0  0  0999 V2000
  -19.7574   12.4271   28.9892 O   0  0  0  0  0  0  0  0  0  0  0  0
  -20.5384   12.6299   28.0648 C   0  0  0  0  0  0  0  0  0  0  0  0
  -20.0237   13.0816   26.6990 C   0  0  0  0  0  0  0  0  0  0  0  0
  -18.9780   12.7599   26.6250 H   0  0  0  0  0  0  0  0  0  0  0  0
  -20.5512   12.5456   25.9006 H   0  0  0  0  0  0  0  0  0  0  0  0
  -20.0553   14.4815   26.4759 O   0  0  0  0  0  0  0  0  0  0  0  0
  -18.8772   15.1833   26.5048 C   0  0  0  0  0  0  0  0  0  0  0  0
  -17.6980   14.8211   25.8547 C   0  0  0  0  0  0  0  0  0  0  0  0
  -17.6401   13.9343   25.2796 H   0  0  0  0  0  0  0  0  0  0  0  0
  -16.5779   15.6386   25.9678 C   0  0  0  0  0  0  0  0  0  0  0  0
  -15.6807   15.3699   25.4701 H   0  0  0  0  0  0  0  0  0  0  0  0
  -16.6272   16.8049   26.7318 C   0  0  0  0  0  0  0  0  0  0  0  0
  -15.4245   17.7005   26.8236 C   0  0  0  0  0  0  0  0  0  0  0  0
  -15.4522   18.4440   26.0210 H   0  0  0  0  0  0  0  0  0  0  0  0
  -15.3951   18.2189   27.7868 H   0  0  0  0  0  0  0  0  0  0  0  0
  -14.4991   17.1219   26.7379 H   0  0  0  0  0  0  0  0  0  0  0  0
  -17.8107   17.1503   27.3861 C   0  0  0  0  0  0  0  0  0  0  0  0
  -17.8547   18.0312   27.9725 H   0  0  0  0  0  0  0  0  0  0  0  0
  -18.9355   16.3386   27.2770 C   0  0  0  0  0  0  0  0  0  0  0  0
  -19.8323   16.5937   27.7799 H   0  0  0  0  0  0  0  0  0  0  0  0
  -21.8696   12.4679   28.2811 N   0  0  0  0  0  0  0  0  0  0  0  0
  -22.3469   11.8943   29.5477 C   0  0  0  0  0  0  0  0  0  0  0  0
  -22.7478   10.9003   29.3112 H   0  0  0  0  0  0  0  0  0  0  0  0
  -21.5296   11.7477   30.2601 H   0  0  0  0  0  0  0  0  0  0  0  0
  -23.4335   12.7562   30.1957 C   0  0  0  0  0  0  0  0  0  0  0  0
  -23.0489   13.7396   30.4856 H   0  0  0  0  0  0  0  0  0  0  0  0
  -23.8640   12.2510   31.0652 H   0  0  0  0  0  0  0  0  0  0  0  0
  -24.5603   12.9887   29.2010 N   0  0  0  0  0  0  0  0  0  0  0  0
  -24.9398   12.0671   28.9411 H   0  0  0  0  0  0  0  0  0  0  0  0
  -25.6917   13.7645   29.8101 C   0  0  0  0  0  0  0  0  0  0  0  0
  -26.4862   13.8466   29.0636 H   0  0  0  0  0  0  0  0  0  0  0  0
  -26.0529   13.2091   30.6801 H   0  0  0  0  0  0  0  0  0  0  0  0
  -25.3234   14.7516   30.1007 H   0  0  0  0  0  0  0  0  0  0  0  0
  -24.0404   13.6454   27.9338 C   0  0  0  0  0  0  0  0  0  0  0  0
  -23.6707   14.6378   28.2136 H   0  0  0  0  0  0  0  0  0  0  0  0
  -24.8841   13.7448   27.2441 H   0  0  0  0  0  0  0  0  0  0  0  0
  -22.9243   12.7932   27.3112 C   0  0  0  0  0  0  0  0  0  0  0  0
  -22.5280   13.3303   26.4481 H   0  0  0  0  0  0  0  0  0  0  0  0
  -23.3329   11.8407   26.9518 H   0  0  0  0  0  0  0  0  0  0  0  0
  1  2  2  0
  2  3  1  0
  2 21  1  0
  3  4  1  0
  3  5  1  0
  3  6  1  0
  6  7  1  0
  7  8  1  0
  7 19  2  0
  8  9  1  0
  8 10  2  0
 10 11  1  0
 10 12  1  0
 12 13  1  0
 12 17  2  0
 13 14  1  0
 13 15  1  0
 13 16  1  0
 17 18  1  0
 17 19  1  0
 19 20  1  0
 21 22  1  0
 21 37  1  0
 22 23  1  0
 22 24  1  0
 22 25  1  0
 25 26  1  0
 25 27  1  0
 25 28  1  0
 28 29  1  0
 28 30  1  0
 28 34  1  0
 30 31  1  0
 30 32  1  0
 30 33  1  0
 34 35  1  0
 34 36  1  0
 34 37  1  0
 37 38  1  0
 37 39  1  0
M  END
$$$$
