F274_18
     RDKit          3D

 26 27  0  0  0  0  0  0  0  0999 V2000
  -24.3659   12.4637   26.1917 O   0  0  0  0  0  0  0  0  0  0  0  0
  -24.5964   12.6723   27.3897 C   0  0  0  0  0  0  0  0  0  0  0  0
  -23.8592   11.9884   28.3659 N   0  0  0  0  0  0  0  0  0  0  0  0
  -22.8022   11.0539   27.9877 C   0  0  0  0  0  0  0  0  0  0  0  0
  -22.5209   10.4695   28.8718 H   0  0  0  0  0  0  0  0  0  0  0  0
  -23.1801   10.3514   27.2369 H   0  0  0  0  0  0  0  0  0  0  0  0
  -21.6328   11.7978   27.4696 C   0  0  0  0  0  0  0  0  0  0  0  0
  -20.7820   11.1351   26.6828 O   0  0  0  0  0  0  0  0  0  0  0  0
  -19.7773   11.9384   26.3095 N   0  0  0  0  0  0  0  0  0  0  0  0
  -19.9888   13.0884   26.8502 C   0  0  0  0  0  0  0  0  0  0  0  0
  -19.0615   14.2182   26.6353 C   0  0  0  0  0  0  0  0  0  0  0  0
  -19.2816   15.0442   27.3198 H   0  0  0  0  0  0  0  0  0  0  0  0
  -19.1497   14.5961   25.6111 H   0  0  0  0  0  0  0  0  0  0  0  0
  -18.0240   13.9111   26.8029 H   0  0  0  0  0  0  0  0  0  0  0  0
  -21.1552   13.0449   27.6003 C   0  0  0  0  0  0  0  0  0  0  0  0
  -21.5855   13.8305   28.1654 H   0  0  0  0  0  0  0  0  0  0  0  0
  -24.0708   12.1521   29.7198 N   0  0  0  0  0  0  0  0  0  0  0  0
  -24.9838   12.9707   30.1410 C   0  0  0  0  0  0  0  0  0  0  0  0
  -25.1985   13.1311   31.6194 C   0  0  0  0  0  0  0  0  0  0  0  0
  -24.2546   13.4200   32.0928 H   0  0  0  0  0  0  0  0  0  0  0  0
  -25.5298   12.1767   32.0402 H   0  0  0  0  0  0  0  0  0  0  0  0
  -25.9503   13.8939   31.8361 H   0  0  0  0  0  0  0  0  0  0  0  0
  -25.7799   13.7146   29.2222 C   0  0  0  0  0  0  0  0  0  0  0  0
  -26.5157   14.3782   29.5974 H   0  0  0  0  0  0  0  0  0  0  0  0
  -25.5911   13.5718   27.8788 C   0  0  0  0  0  0  0  0  0  0  0  0
  -26.1653   14.1093   27.1712 H   0  0  0  0  0  0  0  0  0  0  0  0
  1  2  2  0
  2  3  1  0
  2 25  1  0
  3  4  1  0
  3 17  1  0
  4  5  1  0
  4  6  1  0
  4  7  1  0
  7  8  1  0
  7 15  2  0
  8  9  1  0
  9 10  2  0
 10 11  1  0
 10 15  1  0
 11 12  1  0
 11 13  1  0
 11 14  1  0
 15 16  1  0
 17 18  2  0
 18 19  1  0
 18 23  1  0
 19 20  1  0
 19 21  1  0
 19 22  1  0
 23 24  1  0
 23 25  2  0
 25 26  1  0
M  END
$$$$
