F11_29
     RDKit          3D

 16 17  0  0  0  0  0  0  0  0999 V2000
  -18.1680   20.1639   26.0476 Br  0  0  0  0  0  0  0  0  0  0  0  0
  -17.0174   18.8506   26.7848 C   0  0  0  0  0  0  0  0  0  0  0  0
  -17.3404   17.4666   26.8243 C   0  0  0  0  0  0  0  0  0  0  0  0
  -16.3918   16.5893   27.4031 C   0  0  0  0  0  0  0  0  0  0  0  0
  -15.2081   17.0442   27.9060 N   0  0  0  0  0  0  0  0  0  0  0  0
  -14.9274   18.3148   27.8620 C   0  0  0  0  0  0  0  0  0  0  0  0
  -13.9975   18.6399   28.2609 H   0  0  0  0  0  0  0  0  0  0  0  0
  -15.8141   19.2562   27.3052 C   0  0  0  0  0  0  0  0  0  0  0  0
  -15.5391   20.2797   27.2930 H   0  0  0  0  0  0  0  0  0  0  0  0
  -16.6169   15.2460   27.4841 N   0  0  0  0  0  0  0  0  0  0  0  0
  -17.7277   14.7431   27.0218 C   0  0  0  0  0  0  0  0  0  0  0  0
  -17.8754   13.6938   27.0989 H   0  0  0  0  0  0  0  0  0  0  0  0
  -18.7247   15.5475   26.4300 C   0  0  0  0  0  0  0  0  0  0  0  0
  -19.6099   15.0901   26.0689 H   0  0  0  0  0  0  0  0  0  0  0  0
  -18.5436   16.9030   26.3261 C   0  0  0  0  0  0  0  0  0  0  0  0
  -19.2908   17.5090   25.8824 H   0  0  0  0  0  0  0  0  0  0  0  0
  1  2  1  0
  2  3  1  0
  2  8  2  0
  3  4  1  0
  3 15  2  0
  4  5  1  0
  4 10  2  0
  5  6  2  0
  6  7  1  0
  6  8  1  0
  8  9  1  0
 10 11  1  0
 11 12  1  0
 11 13  2  0
 13 14  1  0
 13 15  1  0
 15 16  1  0
M  END
$$$$
