F366_71
     RDKit          3D

 22 22  0  0  0  0  0  0  0  0999 V2000
  -14.9042   18.1433   24.4670 O   0  0  0  0  0  0  0  0  0  0  0  0
  -14.1441   17.6309   24.7929 H   0  0  0  0  0  0  0  0  0  0  0  0
  -15.2262   19.0971   25.4754 C   0  0  0  0  0  0  0  0  0  0  0  0
  -14.3570   19.7425   25.6421 H   0  0  0  0  0  0  0  0  0  0  0  0
  -16.0534   19.7079   25.1001 H   0  0  0  0  0  0  0  0  0  0  0  0
  -15.6512   18.3826   26.7567 C   0  0  0  0  0  0  0  0  0  0  0  0
  -14.7995   17.8070   27.1395 H   0  0  0  0  0  0  0  0  0  0  0  0
  -15.9200   19.1189   27.5252 H   0  0  0  0  0  0  0  0  0  0  0  0
  -16.8091   17.4575   26.5502 C   0  0  0  0  0  0  0  0  0  0  0  0
  -16.7622   16.1633   26.1616 C   0  0  0  0  0  0  0  0  0  0  0  0
  -15.9489   15.5313   25.9189 H   0  0  0  0  0  0  0  0  0  0  0  0
  -18.0450   15.7414   26.1183 N   0  0  0  0  0  0  0  0  0  0  0  0
  -18.5386   14.4283   25.7641 C   0  0  0  0  0  0  0  0  0  0  0  0
  -19.4102   14.5630   25.1148 H   0  0  0  0  0  0  0  0  0  0  0  0
  -17.7590   13.9260   25.1813 H   0  0  0  0  0  0  0  0  0  0  0  0
  -18.9117   13.6082   26.9861 C   0  0  0  0  0  0  0  0  0  0  0  0
  -19.6936   14.1059   27.5715 H   0  0  0  0  0  0  0  0  0  0  0  0
  -18.0479   13.4598   27.6428 H   0  0  0  0  0  0  0  0  0  0  0  0
  -19.2849   12.6247   26.6843 H   0  0  0  0  0  0  0  0  0  0  0  0
  -18.9117   16.7262   26.4628 N   0  0  0  0  0  0  0  0  0  0  0  0
  -18.1571   17.7588   26.7248 C   0  0  0  0  0  0  0  0  0  0  0  0
  -18.5400   18.7027   27.0271 H   0  0  0  0  0  0  0  0  0  0  0  0
  1  2  1  0
  1  3  1  0
  3  4  1  0
  3  5  1  0
  3  6  1  0
  6  7  1  0
  6  8  1  0
  6  9  1  0
  9 10  2  0
  9 21  1  0
 10 11  1  0
 10 12  1  0
 12 13  1  0
 12 20  1  0
 13 14  1  0
 13 15  1  0
 13 16  1  0
 16 17  1  0
 16 18  1  0
 16 19  1  0
 20 21  2  0
 21 22  1  0
M  END
$$$$
