F389_27
     RDKit          3D

 18 18  0  0  0  0  0  0  0  0999 V2000
  -19.7819   14.9650   27.4969 O   0  0  0  0  0  0  0  0  0  0  0  0
  -19.1673   15.0947   26.4480 C   0  0  0  0  0  0  0  0  0  0  0  0
  -18.5507   16.2454   26.0445 O   0  0  0  0  0  0  0  0  0  0  0  0
  -18.4824   17.3041   27.0125 C   0  0  0  0  0  0  0  0  0  0  0  0
  -17.9403   16.9110   27.8791 H   0  0  0  0  0  0  0  0  0  0  0  0
  -19.4815   17.5904   27.3594 H   0  0  0  0  0  0  0  0  0  0  0  0
  -17.7331   18.4897   26.4359 C   0  0  0  0  0  0  0  0  0  0  0  0
  -18.2569   18.9004   25.5669 H   0  0  0  0  0  0  0  0  0  0  0  0
  -16.7384   18.1868   26.0929 H   0  0  0  0  0  0  0  0  0  0  0  0
  -17.6229   19.2800   27.1838 H   0  0  0  0  0  0  0  0  0  0  0  0
  -19.0213   14.0174   25.4862 C   0  0  0  0  0  0  0  0  0  0  0  0
  -18.4778   14.0889   24.2374 C   0  0  0  0  0  0  0  0  0  0  0  0
  -18.0554   14.8978   23.6990 H   0  0  0  0  0  0  0  0  0  0  0  0
  -18.5622   12.8489   23.7278 N   0  0  0  0  0  0  0  0  0  0  0  0
  -18.2328   12.5668   22.7836 H   0  0  0  0  0  0  0  0  0  0  0  0
  -19.1395   11.9765   24.5984 N   0  0  0  0  0  0  0  0  0  0  0  0
  -19.4136   12.6886   25.6551 C   0  0  0  0  0  0  0  0  0  0  0  0
  -19.8755   12.2915   26.5239 H   0  0  0  0  0  0  0  0  0  0  0  0
  1  2  2  0
  2  3  1  0
  2 11  1  0
  3  4  1  0
  4  5  1  0
  4  6  1  0
  4  7  1  0
  7  8  1  0
  7  9  1  0
  7 10  1  0
 11 12  2  0
 11 17  1  0
 12 13  1  0
 12 14  1  0
 14 15  1  0
 14 16  1  0
 16 17  2  0
 17 18  1  0
M  END
$$$$
