F11_79
     RDKit          3D

 16 17  0  0  0  0  0  0  0  0999 V2000
  -17.5583   13.2302   23.6622 Br  0  0  0  0  0  0  0  0  0  0  0  0
  -18.6311   13.5980   25.1808 C   0  0  0  0  0  0  0  0  0  0  0  0
  -18.6194   14.8483   25.8575 C   0  0  0  0  0  0  0  0  0  0  0  0
  -19.4699   14.9930   26.9801 C   0  0  0  0  0  0  0  0  0  0  0  0
  -20.2756   13.9772   27.4046 N   0  0  0  0  0  0  0  0  0  0  0  0
  -20.2746   12.8383   26.7736 C   0  0  0  0  0  0  0  0  0  0  0  0
  -20.9131   12.0657   27.1268 H   0  0  0  0  0  0  0  0  0  0  0  0
  -19.4591   12.6089   25.6490 C   0  0  0  0  0  0  0  0  0  0  0  0
  -19.4947   11.6641   25.1701 H   0  0  0  0  0  0  0  0  0  0  0  0
  -19.5243   16.1567   27.6903 N   0  0  0  0  0  0  0  0  0  0  0  0
  -18.7811   17.1689   27.3390 C   0  0  0  0  0  0  0  0  0  0  0  0
  -18.8443   18.0621   27.9109 H   0  0  0  0  0  0  0  0  0  0  0  0
  -17.9066   17.1079   26.2331 C   0  0  0  0  0  0  0  0  0  0  0  0
  -17.3240   17.9585   25.9883 H   0  0  0  0  0  0  0  0  0  0  0  0
  -17.8175   15.9594   25.4887 C   0  0  0  0  0  0  0  0  0  0  0  0
  -17.1616   15.9110   24.6582 H   0  0  0  0  0  0  0  0  0  0  0  0
  1  2  1  0
  2  3  1  0
  2  8  2  0
  3  4  1  0
  3 15  2  0
  4  5  1  0
  4 10  2  0
  5  6  2  0
  6  7  1  0
  6  8  1  0
  8  9  1  0
 10 11  1  0
 11 12  1  0
 11 13  2  0
 13 14  1  0
 13 15  1  0
 15 16  1  0
M  END
$$$$
