F13_75
     RDKit          3D

 16 16  0  0  0  0  0  0  0  0999 V2000
  -21.2350   12.3986   28.3000 Br  0  0  0  0  0  0  0  0  0  0  0  0
  -19.7317   13.0546   27.4077 C   0  0  0  0  0  0  0  0  0  0  0  0
  -19.4525   14.3335   27.0807 C   0  0  0  0  0  0  0  0  0  0  0  0
  -19.9817   15.2355   27.2441 H   0  0  0  0  0  0  0  0  0  0  0  0
  -18.2558   14.2973   26.4505 N   0  0  0  0  0  0  0  0  0  0  0  0
  -17.5085   15.4039   25.8864 C   0  0  0  0  0  0  0  0  0  0  0  0
  -16.6752   14.9717   25.3214 H   0  0  0  0  0  0  0  0  0  0  0  0
  -18.1736   15.9223   25.1868 H   0  0  0  0  0  0  0  0  0  0  0  0
  -16.9939   16.3467   26.9627 C   0  0  0  0  0  0  0  0  0  0  0  0
  -17.8332   16.7364   27.5457 H   0  0  0  0  0  0  0  0  0  0  0  0
  -16.4365   17.1883   26.5382 H   0  0  0  0  0  0  0  0  0  0  0  0
  -16.1426   15.6382   27.8583 O   0  0  0  0  0  0  0  0  0  0  0  0
  -16.6702   14.9182   28.2465 H   0  0  0  0  0  0  0  0  0  0  0  0
  -17.7616   13.0314   26.3717 N   0  0  0  0  0  0  0  0  0  0  0  0
  -18.6656   12.2864   26.9531 C   0  0  0  0  0  0  0  0  0  0  0  0
  -18.5784   11.2355   27.0558 H   0  0  0  0  0  0  0  0  0  0  0  0
  1  2  1  0
  2  3  2  0
  2 15  1  0
  3  4  1  0
  3  5  1  0
  5  6  1  0
  5 14  1  0
  6  7  1  0
  6  8  1  0
  6  9  1  0
  9 10  1  0
  9 11  1  0
  9 12  1  0
 12 13  1  0
 14 15  2  0
 15 16  1  0
M  END
$$$$
