F389_6
     RDKit          3D

 18 18  0  0  0  0  0  0  0  0999 V2000
  -22.3756   11.2816   28.0146 O   0  0  0  0  0  0  0  0  0  0  0  0
  -21.7792   12.3366   27.8532 C   0  0  0  0  0  0  0  0  0  0  0  0
  -22.1737   13.5399   28.3664 O   0  0  0  0  0  0  0  0  0  0  0  0
  -23.4569   13.5673   29.0106 C   0  0  0  0  0  0  0  0  0  0  0  0
  -23.5378   14.5323   29.5221 H   0  0  0  0  0  0  0  0  0  0  0  0
  -23.5334   12.7882   29.7772 H   0  0  0  0  0  0  0  0  0  0  0  0
  -24.5609   13.4421   27.9786 C   0  0  0  0  0  0  0  0  0  0  0  0
  -24.5006   12.4836   27.4533 H   0  0  0  0  0  0  0  0  0  0  0  0
  -24.4694   14.2261   27.2198 H   0  0  0  0  0  0  0  0  0  0  0  0
  -25.5442   13.5210   28.4507 H   0  0  0  0  0  0  0  0  0  0  0  0
  -20.5568   12.4356   27.0767 C   0  0  0  0  0  0  0  0  0  0  0  0
  -19.9668   11.4579   26.3309 C   0  0  0  0  0  0  0  0  0  0  0  0
  -20.2406   10.4509   26.1475 H   0  0  0  0  0  0  0  0  0  0  0  0
  -18.8651   12.0140   25.8006 N   0  0  0  0  0  0  0  0  0  0  0  0
  -18.1908   11.5279   25.1772 H   0  0  0  0  0  0  0  0  0  0  0  0
  -18.7183   13.3145   26.1741 N   0  0  0  0  0  0  0  0  0  0  0  0
  -19.7414   13.5605   26.9432 C   0  0  0  0  0  0  0  0  0  0  0  0
  -19.9161   14.5021   27.4003 H   0  0  0  0  0  0  0  0  0  0  0  0
  1  2  2  0
  2  3  1  0
  2 11  1  0
  3  4  1  0
  4  5  1  0
  4  6  1  0
  4  7  1  0
  7  8  1  0
  7  9  1  0
  7 10  1  0
 11 12  2  0
 11 17  1  0
 12 13  1  0
 12 14  1  0
 14 15  1  0
 14 16  1  0
 16 17  2  0
 17 18  1  0
M  END
$$$$
