F503_17
     RDKit          3D

 29 30  0  0  0  0  0  0  0  0999 V2000
  -22.9718   15.2600   29.4005 F   0  0  0  0  0  0  0  0  0  0  0  0
  -24.1217   14.6921   29.7950 C   0  0  0  0  0  0  0  0  0  0  0  0
  -24.7246   13.7258   28.9867 C   0  0  0  0  0  0  0  0  0  0  0  0
  -24.1032   13.2942   27.6822 C   0  0  0  0  0  0  0  0  0  0  0  0
  -23.8166   14.1733   27.0908 H   0  0  0  0  0  0  0  0  0  0  0  0
  -24.8789   12.7935   27.0871 H   0  0  0  0  0  0  0  0  0  0  0  0
  -22.8976   12.3751   27.8481 C   0  0  0  0  0  0  0  0  0  0  0  0
  -21.5595   13.0000   27.6118 C   0  0  0  0  0  0  0  0  0  0  0  0
  -20.9438   13.6103   28.4623 O   0  0  0  0  0  0  0  0  0  0  0  0
  -21.0399   12.8779   26.3655 N   0  0  0  0  0  0  0  0  0  0  0  0
  -21.6001   12.4083   25.6681 H   0  0  0  0  0  0  0  0  0  0  0  0
  -19.7488   13.3993   25.9949 C   0  0  0  0  0  0  0  0  0  0  0  0
  -19.7712   14.4900   26.0639 H   0  0  0  0  0  0  0  0  0  0  0  0
  -18.9882   13.0063   26.6742 H   0  0  0  0  0  0  0  0  0  0  0  0
  -19.5285   13.0935   24.9691 H   0  0  0  0  0  0  0  0  0  0  0  0
  -23.0124   10.8686   27.5961 C   0  0  0  0  0  0  0  0  0  0  0  0
  -22.1370   10.3415   27.2277 H   0  0  0  0  0  0  0  0  0  0  0  0
  -23.9440   10.4425   27.2443 H   0  0  0  0  0  0  0  0  0  0  0  0
  -22.9770   11.3706   29.0000 C   0  0  0  0  0  0  0  0  0  0  0  0
  -22.0824   11.1854   29.5845 H   0  0  0  0  0  0  0  0  0  0  0  0
  -23.8912   11.3074   29.5794 H   0  0  0  0  0  0  0  0  0  0  0  0
  -25.9257   13.1658   29.4231 C   0  0  0  0  0  0  0  0  0  0  0  0
  -26.4162   12.4322   28.8362 H   0  0  0  0  0  0  0  0  0  0  0  0
  -26.4941   13.5682   30.6324 C   0  0  0  0  0  0  0  0  0  0  0  0
  -27.4084   13.1351   30.9544 H   0  0  0  0  0  0  0  0  0  0  0  0
  -25.8713   14.5338   31.4225 C   0  0  0  0  0  0  0  0  0  0  0  0
  -26.3103   14.8337   32.3403 H   0  0  0  0  0  0  0  0  0  0  0  0
  -24.6739   15.1031   31.0019 C   0  0  0  0  0  0  0  0  0  0  0  0
  -24.1861   15.8385   31.5872 H   0  0  0  0  0  0  0  0  0  0  0  0
  1  2  1  0
  2  3  1  0
  2 28  2  0
  3  4  1  0
  3 22  2  0
  4  5  1  0
  4  6  1  0
  4  7  1  0
  7  8  1  0
  7 16  1  0
  7 19  1  0
  8  9  2  0
  8 10  1  0
 10 11  1  0
 10 12  1  0
 12 13  1  0
 12 14  1  0
 12 15  1  0
 16 17  1  0
 16 18  1  0
 16 19  1  0
 19 20  1  0
 19 21  1  0
 22 23  1  0
 22 24  1  0
 24 25  1  0
 24 26  2  0
 26 27  1  0
 26 28  1  0
 28 29  1  0
M  END
$$$$
