F393_56
     RDKit          3D

 24 24  0  0  0  0  0  0  0  0999 V2000
  -21.0677   11.3371   26.8134 O   0  0  0  0  0  0  0  0  0  0  0  0
  -20.7363   12.4829   27.0909 C   0  0  0  0  0  0  0  0  0  0  0  0
  -21.4786   13.3315   27.8527 O   0  0  0  0  0  0  0  0  0  0  0  0
  -22.6802   12.7635   28.3891 C   0  0  0  0  0  0  0  0  0  0  0  0
  -23.2743   12.3250   27.5802 H   0  0  0  0  0  0  0  0  0  0  0  0
  -22.4266   11.9911   29.1233 H   0  0  0  0  0  0  0  0  0  0  0  0
  -23.4676   13.8715   29.0608 C   0  0  0  0  0  0  0  0  0  0  0  0
  -23.7075   14.6641   28.3437 H   0  0  0  0  0  0  0  0  0  0  0  0
  -22.8772   14.3324   29.8599 H   0  0  0  0  0  0  0  0  0  0  0  0
  -24.3987   13.4863   29.4863 H   0  0  0  0  0  0  0  0  0  0  0  0
  -19.5600   13.0358   26.6547 N   0  0  0  0  0  0  0  0  0  0  0  0
  -18.6213   12.2681   25.8373 C   0  0  0  0  0  0  0  0  0  0  0  0
  -17.7509   12.0668   26.4726 H   0  0  0  0  0  0  0  0  0  0  0  0
  -19.0490   11.3078   25.5319 H   0  0  0  0  0  0  0  0  0  0  0  0
  -18.1942   13.0746   24.6109 C   0  0  0  0  0  0  0  0  0  0  0  0
  -19.0346   13.2234   23.9219 H   0  0  0  0  0  0  0  0  0  0  0  0
  -17.4047   12.5440   24.0689 H   0  0  0  0  0  0  0  0  0  0  0  0
  -17.6749   14.3555   24.9970 O   0  0  0  0  0  0  0  0  0  0  0  0
  -18.6698   15.1186   25.6964 C   0  0  0  0  0  0  0  0  0  0  0  0
  -18.2293   16.0878   25.9508 H   0  0  0  0  0  0  0  0  0  0  0  0
  -19.5170   15.2999   25.0236 H   0  0  0  0  0  0  0  0  0  0  0  0
  -19.1193   14.3970   26.9678 C   0  0  0  0  0  0  0  0  0  0  0  0
  -19.9001   14.9737   27.4712 H   0  0  0  0  0  0  0  0  0  0  0  0
  -18.2739   14.2959   27.6579 H   0  0  0  0  0  0  0  0  0  0  0  0
  1  2  2  0
  2  3  1  0
  2 11  1  0
  3  4  1  0
  4  5  1  0
  4  6  1  0
  4  7  1  0
  7  8  1  0
  7  9  1  0
  7 10  1  0
 11 12  1  0
 11 22  1  0
 12 13  1  0
 12 14  1  0
 12 15  1  0
 15 16  1  0
 15 17  1  0
 15 18  1  0
 18 19  1  0
 19 20  1  0
 19 21  1  0
 19 22  1  0
 22 23  1  0
 22 24  1  0
M  END
$$$$
