F600_1
     RDKit          3D

 16 16  0  0  0  0  0  0  0  0999 V2000
  -25.4948   15.6769   27.2740 O   0  0  0  0  0  0  0  0  0  0  0  0
  -26.0134   14.5136   27.9190 C   0  0  0  0  0  0  0  0  0  0  0  0
  -25.9303   14.6283   29.0068 H   0  0  0  0  0  0  0  0  0  0  0  0
  -27.0689   14.3773   27.6577 H   0  0  0  0  0  0  0  0  0  0  0  0
  -25.2015   13.3472   27.4689 C   0  0  0  0  0  0  0  0  0  0  0  0
  -24.3348   12.3892   28.5939 S   0  0  0  0  0  0  0  0  0  0  0  0
  -23.8072   11.4804   27.2564 C   0  0  0  0  0  0  0  0  0  0  0  0
  -22.9899   10.4282   27.4316 N   0  0  0  0  0  0  0  0  0  0  0  0
  -22.6665   10.1413   28.3469 H   0  0  0  0  0  0  0  0  0  0  0  0
  -22.6755    9.8876   26.6348 H   0  0  0  0  0  0  0  0  0  0  0  0
  -24.2387   11.8740   26.0992 N   0  0  0  0  0  0  0  0  0  0  0  0
  -25.0598   12.9744   26.2326 N   0  0  0  0  0  0  0  0  0  0  0  0
  -25.9337   16.8680   27.9116 C   0  0  0  0  0  0  0  0  0  0  0  0
  -25.5078   17.7218   27.3771 H   0  0  0  0  0  0  0  0  0  0  0  0
  -25.5872   16.8977   28.9490 H   0  0  0  0  0  0  0  0  0  0  0  0
  -27.0247   16.9424   27.8753 H   0  0  0  0  0  0  0  0  0  0  0  0
  1  2  1  0
  1 13  1  0
  2  3  1  0
  2  4  1  0
  2  5  1  0
  5  6  1  0
  5 12  2  0
  6  7  1  0
  7  8  1  0
  7 11  2  0
  8  9  1  0
  8 10  1  0
 11 12  1  0
 13 14  1  0
 13 15  1  0
 13 16  1  0
M  END
$$$$
