F584_87
     RDKit          3D

 27 28  0  0  0  0  0  0  0  0999 V2000
  -18.1844   15.6009   26.6648 O   0  0  0  0  0  0  0  0  0  0  0  0
  -18.5289   16.8939   26.1858 C   0  0  0  0  0  0  0  0  0  0  0  0
  -18.2125   17.6239   26.9376 H   0  0  0  0  0  0  0  0  0  0  0  0
  -19.6128   16.9938   26.0624 H   0  0  0  0  0  0  0  0  0  0  0  0
  -17.9996   17.1254   25.2557 H   0  0  0  0  0  0  0  0  0  0  0  0
  -18.5052   14.5060   25.8900 C   0  0  0  0  0  0  0  0  0  0  0  0
  -19.4836   13.6499   26.4154 C   0  0  0  0  0  0  0  0  0  0  0  0
  -19.8197   12.5087   25.6717 C   0  0  0  0  0  0  0  0  0  0  0  0
  -20.7402   11.4971   26.0352 N   0  0  0  0  0  0  0  0  0  0  0  0
  -20.9281   10.7935   25.3108 H   0  0  0  0  0  0  0  0  0  0  0  0
  -21.4465   11.2254   27.1642 C   0  0  0  0  0  0  0  0  0  0  0  0
  -22.1124   10.2202   27.0742 O   0  0  0  0  0  0  0  0  0  0  0  0
  -21.3390   12.0318   28.4113 C   0  0  0  0  0  0  0  0  0  0  0  0
  -22.1718   11.7365   29.0611 H   0  0  0  0  0  0  0  0  0  0  0  0
  -20.4093   11.7736   28.9303 H   0  0  0  0  0  0  0  0  0  0  0  0
  -21.4518   13.5042   28.1115 C   0  0  0  0  0  0  0  0  0  0  0  0
  -22.1938   13.7042   27.3282 H   0  0  0  0  0  0  0  0  0  0  0  0
  -21.7956   14.0187   29.0165 H   0  0  0  0  0  0  0  0  0  0  0  0
  -20.0990   14.0750   27.7316 C   0  0  0  0  0  0  0  0  0  0  0  0
  -19.3734   13.8695   28.5296 H   0  0  0  0  0  0  0  0  0  0  0  0
  -20.2501   15.1623   27.7123 H   0  0  0  0  0  0  0  0  0  0  0  0
  -19.1999   12.2375   24.4495 C   0  0  0  0  0  0  0  0  0  0  0  0
  -19.4658   11.3710   23.9006 H   0  0  0  0  0  0  0  0  0  0  0  0
  -18.2369   13.1026   23.9476 C   0  0  0  0  0  0  0  0  0  0  0  0
  -17.7701   12.8962   23.0189 H   0  0  0  0  0  0  0  0  0  0  0  0
  -17.8864   14.2410   24.6645 C   0  0  0  0  0  0  0  0  0  0  0  0
  -17.1523   14.8953   24.2754 H   0  0  0  0  0  0  0  0  0  0  0  0
  1  2  1  0
  1  6  1  0
  2  3  1  0
  2  4  1  0
  2  5  1  0
  6  7  1  0
  6 26  2  0
  7  8  2  0
  7 19  1  0
  8  9  1  0
  8 22  1  0
  9 10  1  0
  9 11  1  0
 11 12  2  0
 11 13  1  0
 13 14  1  0
 13 15  1  0
 13 16  1  0
 16 17  1  0
 16 18  1  0
 16 19  1  0
 19 20  1  0
 19 21  1  0
 22 23  1  0
 22 24  2  0
 24 25  1  0
 24 26  1  0
 26 27  1  0
M  END
$$$$
