F666_20
     RDKit          3D

 35 37  0  0  0  0  0  0  0  0999 V2000
  -19.7659   10.8855   24.9872 F   0  0  0  0  0  0  0  0  0  0  0  0
  -19.3026   12.0590   25.4405 C   0  0  0  0  0  0  0  0  0  0  0  0
  -19.4104   13.1818   24.6293 C   0  0  0  0  0  0  0  0  0  0  0  0
  -19.8530   13.1036   23.6706 H   0  0  0  0  0  0  0  0  0  0  0  0
  -18.9287   14.4005   25.0979 C   0  0  0  0  0  0  0  0  0  0  0  0
  -19.0092   15.2550   24.4847 H   0  0  0  0  0  0  0  0  0  0  0  0
  -18.3346   14.4788   26.3704 C   0  0  0  0  0  0  0  0  0  0  0  0
  -17.8362   15.6890   26.8362 N   0  0  0  0  0  0  0  0  0  0  0  0
  -18.6472   16.9149   26.8844 C   0  0  0  0  0  0  0  0  0  0  0  0
  -19.6389   16.7954   26.4369 H   0  0  0  0  0  0  0  0  0  0  0  0
  -18.8129   17.1692   27.9387 H   0  0  0  0  0  0  0  0  0  0  0  0
  -17.9068   18.0731   26.1969 C   0  0  0  0  0  0  0  0  0  0  0  0
  -18.4822   18.9952   26.3071 H   0  0  0  0  0  0  0  0  0  0  0  0
  -17.8113   17.8723   25.1235 H   0  0  0  0  0  0  0  0  0  0  0  0
  -16.5442   18.2180   26.7268 N   0  0  0  0  0  0  0  0  0  0  0  0
  -16.0193   19.3813   27.2384 C   0  0  0  0  0  0  0  0  0  0  0  0
  -14.8693   19.3791   27.6376 O   0  0  0  0  0  0  0  0  0  0  0  0
  -16.8562   20.6013   27.2875 C   0  0  0  0  0  0  0  0  0  0  0  0
  -16.9827   21.0887   26.3256 H   0  0  0  0  0  0  0  0  0  0  0  0
  -16.7703   21.5319   28.4767 C   0  0  0  0  0  0  0  0  0  0  0  0
  -16.1034   21.2671   29.2897 H   0  0  0  0  0  0  0  0  0  0  0  0
  -16.8416   22.5967   28.2916 H   0  0  0  0  0  0  0  0  0  0  0  0
  -17.9972   20.6964   28.2737 C   0  0  0  0  0  0  0  0  0  0  0  0
  -18.1614   19.8722   28.9592 H   0  0  0  0  0  0  0  0  0  0  0  0
  -18.9039   21.1955   27.9530 H   0  0  0  0  0  0  0  0  0  0  0  0
  -15.7449   16.9877   26.6665 C   0  0  0  0  0  0  0  0  0  0  0  0
  -15.5894   16.7641   25.6048 H   0  0  0  0  0  0  0  0  0  0  0  0
  -14.7583   17.1264   27.1199 H   0  0  0  0  0  0  0  0  0  0  0  0
  -16.4626   15.8108   27.3504 C   0  0  0  0  0  0  0  0  0  0  0  0
  -16.5046   15.9762   28.4333 H   0  0  0  0  0  0  0  0  0  0  0  0
  -15.8669   14.9087   27.1727 H   0  0  0  0  0  0  0  0  0  0  0  0
  -18.2585   13.3319   27.1775 C   0  0  0  0  0  0  0  0  0  0  0  0
  -17.8555   13.3947   28.1535 H   0  0  0  0  0  0  0  0  0  0  0  0
  -18.7377   12.1130   26.7070 C   0  0  0  0  0  0  0  0  0  0  0  0
  -18.6840   11.2404   27.3032 H   0  0  0  0  0  0  0  0  0  0  0  0
  1  2  1  0
  2  3  1  0
  2 34  2  0
  3  4  1  0
  3  5  2  0
  5  6  1  0
  5  7  1  0
  7  8  1  0
  7 32  2  0
  8  9  1  0
  8 29  1  0
  9 10  1  0
  9 11  1  0
  9 12  1  0
 12 13  1  0
 12 14  1  0
 12 15  1  0
 15 16  1  0
 15 26  1  0
 16 17  2  0
 16 18  1  0
 18 19  1  0
 18 20  1  0
 18 23  1  0
 20 21  1  0
 20 22  1  0
 20 23  1  0
 23 24  1  0
 23 25  1  0
 26 27  1  0
 26 28  1  0
 26 29  1  0
 29 30  1  0
 29 31  1  0
 32 33  1  0
 32 34  1  0
 34 35  1  0
M  END
$$$$
