F96_75
     RDKit          3D

 19 19  0  0  0  0  0  0  0  0999 V2000
  -20.7774   11.0199   26.6174 O   0  0  0  0  0  0  0  0  0  0  0  0
  -20.9559   11.9096   27.4368 C   0  0  0  0  0  0  0  0  0  0  0  0
  -19.9642   12.6657   27.8859 N   0  0  0  0  0  0  0  0  0  0  0  0
  -20.1434   13.3819   28.5686 H   0  0  0  0  0  0  0  0  0  0  0  0
  -18.6007   12.4959   27.4302 C   0  0  0  0  0  0  0  0  0  0  0  0
  -17.9251   12.7312   28.2598 H   0  0  0  0  0  0  0  0  0  0  0  0
  -18.4477   11.4459   27.1583 H   0  0  0  0  0  0  0  0  0  0  0  0
  -18.3638   13.3954   26.2708 C   0  0  0  0  0  0  0  0  0  0  0  0
  -17.7338   14.5938   26.2801 C   0  0  0  0  0  0  0  0  0  0  0  0
  -17.2857   15.1490   27.0637 H   0  0  0  0  0  0  0  0  0  0  0  0
  -17.7591   15.0312   25.0030 N   0  0  0  0  0  0  0  0  0  0  0  0
  -17.3536   15.9250   24.6678 H   0  0  0  0  0  0  0  0  0  0  0  0
  -18.3915   14.1554   24.1792 N   0  0  0  0  0  0  0  0  0  0  0  0
  -18.7516   13.1694   24.9539 C   0  0  0  0  0  0  0  0  0  0  0  0
  -19.2764   12.3166   24.6021 H   0  0  0  0  0  0  0  0  0  0  0  0
  -22.3099   12.1971   28.0237 C   0  0  0  0  0  0  0  0  0  0  0  0
  -22.3833   13.2354   28.3592 H   0  0  0  0  0  0  0  0  0  0  0  0
  -22.4795   11.5326   28.8742 H   0  0  0  0  0  0  0  0  0  0  0  0
  -23.0782   12.0234   27.2652 H   0  0  0  0  0  0  0  0  0  0  0  0
  1  2  2  0
  2  3  1  0
  2 16  1  0
  3  4  1  0
  3  5  1  0
  5  6  1  0
  5  7  1  0
  5  8  1  0
  8  9  2  0
  8 14  1  0
  9 10  1  0
  9 11  1  0
 11 12  1  0
 11 13  1  0
 13 14  2  0
 14 15  1  0
 16 17  1  0
 16 18  1  0
 16 19  1  0
M  END
