F710_56
     RDKit          3D

 30 31  0  0  0  0  0  0  0  0999 V2000
  -25.5856   12.1498   29.9226 F   0  0  0  0  0  0  0  0  0  0  0  0
  -24.4104   12.2936   29.2933 C   0  0  0  0  0  0  0  0  0  0  0  0
  -24.4029   12.7527   27.9816 C   0  0  0  0  0  0  0  0  0  0  0  0
  -25.3134   12.9801   27.4917 H   0  0  0  0  0  0  0  0  0  0  0  0
  -23.1833   12.9005   27.3288 C   0  0  0  0  0  0  0  0  0  0  0  0
  -23.1509   13.2296   26.3241 H   0  0  0  0  0  0  0  0  0  0  0  0
  -21.9903   12.5924   27.9973 C   0  0  0  0  0  0  0  0  0  0  0  0
  -20.7724   12.7381   27.3458 N   0  0  0  0  0  0  0  0  0  0  0  0
  -20.1781   11.6555   26.5499 C   0  0  0  0  0  0  0  0  0  0  0  0
  -19.2713   11.3001   27.0542 H   0  0  0  0  0  0  0  0  0  0  0  0
  -20.8524   10.7996   26.4351 H   0  0  0  0  0  0  0  0  0  0  0  0
  -19.8331   12.1762   25.1459 C   0  0  0  0  0  0  0  0  0  0  0  0
  -20.7543   12.4216   24.6035 H   0  0  0  0  0  0  0  0  0  0  0  0
  -19.3227   11.3918   24.5775 H   0  0  0  0  0  0  0  0  0  0  0  0
  -19.0364   13.4091   25.1944 N   0  0  0  0  0  0  0  0  0  0  0  0
  -17.8463   13.4546   24.5210 C   0  0  0  0  0  0  0  0  0  0  0  0
  -17.3091   12.4807   24.0211 O   0  0  0  0  0  0  0  0  0  0  0  0
  -17.2738   14.6559   24.4113 N   0  0  0  0  0  0  0  0  0  0  0  0
  -16.3251   14.7098   24.7971 H   0  0  0  0  0  0  0  0  0  0  0  0
  -17.4890   15.1806   23.5608 H   0  0  0  0  0  0  0  0  0  0  0  0
  -19.6343   14.4788   26.0134 C   0  0  0  0  0  0  0  0  0  0  0  0
  -18.9662   15.3369   26.1112 H   0  0  0  0  0  0  0  0  0  0  0  0
  -20.5410   14.8092   25.4941 H   0  0  0  0  0  0  0  0  0  0  0  0
  -19.9794   13.9721   27.4238 C   0  0  0  0  0  0  0  0  0  0  0  0
  -20.4731   14.7675   27.9922 H   0  0  0  0  0  0  0  0  0  0  0  0
  -19.0501   13.7432   27.9611 H   0  0  0  0  0  0  0  0  0  0  0  0
  -22.0202   12.1255   29.3218 C   0  0  0  0  0  0  0  0  0  0  0  0
  -21.1248   11.8979   29.8344 H   0  0  0  0  0  0  0  0  0  0  0  0
  -23.2406   11.9772   29.9736 C   0  0  0  0  0  0  0  0  0  0  0  0
  -23.2863   11.6311   30.9730 H   0  0  0  0  0  0  0  0  0  0  0  0
  1  2  1  0
  2  3  1  0
  2 29  2  0
  3  4  1  0
  3  5  2  0
  5  6  1  0
  5  7  1  0
  7  8  1  0
  7 27  2  0
  8  9  1  0
  8 24  1  0
  9 10  1  0
  9 11  1  0
  9 12  1  0
 12 13  1  0
 12 14  1  0
 12 15  1  0
 15 16  1  0
 15 21  1  0
 16 17  2  0
 16 18  1  0
 18 19  1  0
 18 20  1  0
 21 22  1  0
 21 23  1  0
 21 24  1  0
 24 25  1  0
 24 26  1  0
 27 28  1  0
 27 29  1  0
 29 30  1  0
M  END
$$$$
