F650_22
     RDKit          3D

 23 24  0  0  0  0  0  0  0  0999 V2000
  -25.4940   14.6353   26.7959 O   0  0  0  0  0  0  0  0  0  0  0  0
  -24.7832   14.1885   27.6908 C   0  0  0  0  0  0  0  0  0  0  0  0
  -24.6900   14.9376   28.8523 N   0  0  0  0  0  0  0  0  0  0  0  0
  -23.8424   14.6916   30.0140 C   0  0  0  0  0  0  0  0  0  0  0  0
  -23.9954   13.6910   30.4198 H   0  0  0  0  0  0  0  0  0  0  0  0
  -22.7990   14.8004   29.7000 H   0  0  0  0  0  0  0  0  0  0  0  0
  -24.2436   15.7579   31.0266 C   0  0  0  0  0  0  0  0  0  0  0  0
  -25.0631   15.3863   31.6542 H   0  0  0  0  0  0  0  0  0  0  0  0
  -23.4182   16.0488   31.6804 H   0  0  0  0  0  0  0  0  0  0  0  0
  -24.7450   16.8977   30.1533 C   0  0  0  0  0  0  0  0  0  0  0  0
  -23.8930   17.4651   29.7598 H   0  0  0  0  0  0  0  0  0  0  0  0
  -25.4034   17.5888   30.6865 H   0  0  0  0  0  0  0  0  0  0  0  0
  -25.4516   16.1673   29.0233 C   0  0  0  0  0  0  0  0  0  0  0  0
  -25.4837   16.7537   28.1007 H   0  0  0  0  0  0  0  0  0  0  0  0
  -26.4744   15.8891   29.3030 H   0  0  0  0  0  0  0  0  0  0  0  0
  -24.0165   12.9672   27.5350 C   0  0  0  0  0  0  0  0  0  0  0  0
  -22.6602   12.9020   27.6576 C   0  0  0  0  0  0  0  0  0  0  0  0
  -21.9433   13.6468   27.8889 H   0  0  0  0  0  0  0  0  0  0  0  0
  -22.3265   11.6251   27.4109 N   0  0  0  0  0  0  0  0  0  0  0  0
  -21.3585   11.2498   27.4248 H   0  0  0  0  0  0  0  0  0  0  0  0
  -23.4140   10.8566   27.1252 N   0  0  0  0  0  0  0  0  0  0  0  0
  -24.4247   11.6754   27.1931 C   0  0  0  0  0  0  0  0  0  0  0  0
  -25.4230   11.3779   26.9959 H   0  0  0  0  0  0  0  0  0  0  0  0
  1  2  2  0
  2  3  1  0
  2 16  1  0
  3  4  1  0
  3 13  1  0
  4  5  1  0
  4  6  1  0
  4  7  1  0
  7  8  1  0
  7  9  1  0
  7 10  1  0
 10 11  1  0
 10 12  1  0
 10 13  1  0
 13 14  1  0
 13 15  1  0
 16 17  2  0
 16 22  1  0
 17 18  1  0
 17 19  1  0
 19 20  1  0
 19 21  1  0
 21 22  2  0
 22 23  1  0
M  END
$$$$
