F229_56
     RDKit          3D

 27 28  0  0  0  0  0  0  0  0999 V2000
  -22.4079   10.0013   28.3293 F   0  0  0  0  0  0  0  0  0  0  0  0
  -22.6935   11.1807   28.9039 C   0  0  0  0  0  0  0  0  0  0  0  0
  -22.1871   12.3849   28.3747 C   0  0  0  0  0  0  0  0  0  0  0  0
  -21.3797   12.4522   27.2464 N   0  0  0  0  0  0  0  0  0  0  0  0
  -21.7517   12.1284   26.3614 H   0  0  0  0  0  0  0  0  0  0  0  0
  -20.0220   12.9684   27.2360 C   0  0  0  0  0  0  0  0  0  0  0  0
  -20.0013   13.9458   27.7335 H   0  0  0  0  0  0  0  0  0  0  0  0
  -19.3691   12.2994   27.8093 H   0  0  0  0  0  0  0  0  0  0  0  0
  -19.4385   13.1251   25.8650 C   0  0  0  0  0  0  0  0  0  0  0  0
  -18.7654   14.2374   25.3637 C   0  0  0  0  0  0  0  0  0  0  0  0
  -18.4694   15.5217   26.0428 C   0  0  0  0  0  0  0  0  0  0  0  0
  -17.9692   15.3438   27.0006 H   0  0  0  0  0  0  0  0  0  0  0  0
  -19.3960   16.0726   26.2356 H   0  0  0  0  0  0  0  0  0  0  0  0
  -17.8164   16.1594   25.4378 H   0  0  0  0  0  0  0  0  0  0  0  0
  -18.3806   14.0347   24.1351 N   0  0  0  0  0  0  0  0  0  0  0  0
  -18.8019   12.7815   23.8362 N   0  0  0  0  0  0  0  0  0  0  0  0
  -18.6361   12.3387   22.9130 H   0  0  0  0  0  0  0  0  0  0  0  0
  -19.4452   12.2056   24.8721 C   0  0  0  0  0  0  0  0  0  0  0  0
  -19.8400   11.2249   24.8216 H   0  0  0  0  0  0  0  0  0  0  0  0
  -22.5232   13.5837   29.0063 C   0  0  0  0  0  0  0  0  0  0  0  0
  -22.1664   14.5011   28.6176 H   0  0  0  0  0  0  0  0  0  0  0  0
  -23.3272   13.5719   30.1449 C   0  0  0  0  0  0  0  0  0  0  0  0
  -23.5767   14.4854   30.6227 H   0  0  0  0  0  0  0  0  0  0  0  0
  -23.8115   12.3690   30.6643 C   0  0  0  0  0  0  0  0  0  0  0  0
  -24.4225   12.3729   31.5308 H   0  0  0  0  0  0  0  0  0  0  0  0
  -23.4935   11.1658   30.0376 C   0  0  0  0  0  0  0  0  0  0  0  0
  -23.8600   10.2464   30.4177 H   0  0  0  0  0  0  0  0  0  0  0  0
  1  2  1  0
  2  3  1  0
  2 26  2  0
  3  4  1  0
  3 20  2  0
  4  5  1  0
  4  6  1  0
  6  7  1  0
  6  8  1  0
  6  9  1  0
  9 10  1  0
  9 18  2  0
 10 11  1  0
 10 15  2  0
 11 12  1  0
 11 13  1  0
 11 14  1  0
 15 16  1  0
 16 17  1  0
 16 18  1  0
 18 19  1  0
 20 21  1  0
 20 22  1  0
 22 23  1  0
 22 24  2  0
 24 25  1  0
 24 26  1  0
 26 27  1  0
M  END
$$$$
