F535_77
     RDKit          3D

 23 24  0  0  0  0  0  0  0  0999 V2000
  -19.2169   12.2158   27.0594 N   0  0  0  0  0  0  0  0  0  0  0  0
  -18.2797   12.4515   27.4201 H   0  0  0  0  0  0  0  0  0  0  0  0
  -19.2285   11.1861   27.0458 H   0  0  0  0  0  0  0  0  0  0  0  0
  -20.2283   12.6775   28.0653 C   0  0  0  0  0  0  0  0  0  0  0  0
  -19.8697   12.3529   29.0465 H   0  0  0  0  0  0  0  0  0  0  0  0
  -20.2456   13.7716   28.0168 H   0  0  0  0  0  0  0  0  0  0  0  0
  -21.5649   12.1126   27.7713 C   0  0  0  0  0  0  0  0  0  0  0  0
  -22.7370   12.7026   28.0403 N   0  0  0  0  0  0  0  0  0  0  0  0
  -23.7017   11.8530   27.6188 C   0  0  0  0  0  0  0  0  0  0  0  0
  -23.1297   10.7872   27.1071 N   0  0  0  0  0  0  0  0  0  0  0  0
  -21.7871   10.9615   27.2043 N   0  0  0  0  0  0  0  0  0  0  0  0
  -25.0687   12.2269   27.7854 C   0  0  0  0  0  0  0  0  0  0  0  0
  -25.8254   11.5613   27.4574 H   0  0  0  0  0  0  0  0  0  0  0  0
  -25.3799   13.4254   28.3607 C   0  0  0  0  0  0  0  0  0  0  0  0
  -26.3916   13.7173   28.4921 H   0  0  0  0  0  0  0  0  0  0  0  0
  -24.3327   14.2992   28.7913 C   0  0  0  0  0  0  0  0  0  0  0  0
  -24.5926   15.2284   29.2350 H   0  0  0  0  0  0  0  0  0  0  0  0
  -23.0213   13.9446   28.6348 C   0  0  0  0  0  0  0  0  0  0  0  0
  -22.1879   14.5296   28.9238 H   0  0  0  0  0  0  0  0  0  0  0  0
  -19.3918   12.7539   25.6900 C   0  0  0  0  0  0  0  0  0  0  0  0
  -19.3182   13.8424   25.7357 H   0  0  0  0  0  0  0  0  0  0  0  0
  -20.3689   12.4365   25.3187 H   0  0  0  0  0  0  0  0  0  0  0  0
  -18.5933   12.3401   25.0698 H   0  0  0  0  0  0  0  0  0  0  0  0
  1  2  1  0
  1  3  1  0
  1  4  1  0
  1 20  1  0
  4  5  1  0
  4  6  1  0
  4  7  1  0
  7  8  1  0
  7 11  2  0
  8  9  1  0
  8 18  1  0
  9 10  2  0
  9 12  1  0
 10 11  1  0
 12 13  1  0
 12 14  2  0
 14 15  1  0
 14 16  1  0
 16 17  1  0
 16 18  2  0
 18 19  1  0
 20 21  1  0
 20 22  1  0
 20 23  1  0
M  END
$$$$
