F369_53
     RDKit          3D

 32 33  0  0  0  0  0  0  0  0999 V2000
  -22.1307   13.0465   26.4846 O   0  0  0  0  0  0  0  0  0  0  0  0
  -21.2259   12.6757   27.2063 C   0  0  0  0  0  0  0  0  0  0  0  0
  -21.4543   12.3883   28.5221 N   0  0  0  0  0  0  0  0  0  0  0  0
  -20.6187   12.0897   29.0346 H   0  0  0  0  0  0  0  0  0  0  0  0
  -22.6486   12.4571   29.2234 C   0  0  0  0  0  0  0  0  0  0  0  0
  -23.8462   12.8837   28.7723 C   0  0  0  0  0  0  0  0  0  0  0  0
  -24.1557   13.2448   27.8270 H   0  0  0  0  0  0  0  0  0  0  0  0
  -24.6818   12.7597   29.8312 N   0  0  0  0  0  0  0  0  0  0  0  0
  -26.0903   13.0889   29.8904 C   0  0  0  0  0  0  0  0  0  0  0  0
  -26.6099   12.4492   29.1688 H   0  0  0  0  0  0  0  0  0  0  0  0
  -26.4523   12.8310   30.8917 H   0  0  0  0  0  0  0  0  0  0  0  0
  -26.3513   14.5557   29.5974 C   0  0  0  0  0  0  0  0  0  0  0  0
  -26.0072   14.8261   28.5936 H   0  0  0  0  0  0  0  0  0  0  0  0
  -25.8293   15.2000   30.3134 H   0  0  0  0  0  0  0  0  0  0  0  0
  -27.4219   14.7714   29.6611 H   0  0  0  0  0  0  0  0  0  0  0  0
  -24.0481   12.2632   30.9342 N   0  0  0  0  0  0  0  0  0  0  0  0
  -22.8091   12.0837   30.5547 C   0  0  0  0  0  0  0  0  0  0  0  0
  -22.0518   11.7041   31.1902 H   0  0  0  0  0  0  0  0  0  0  0  0
  -19.7956   12.5246   26.7102 C   0  0  0  0  0  0  0  0  0  0  0  0
  -19.3636   11.6677   27.2424 H   0  0  0  0  0  0  0  0  0  0  0  0
  -19.7198   12.2800   25.1974 C   0  0  0  0  0  0  0  0  0  0  0  0
  -19.5623   11.2203   24.9702 H   0  0  0  0  0  0  0  0  0  0  0  0
  -20.6379   12.5842   24.6831 H   0  0  0  0  0  0  0  0  0  0  0  0
  -18.5475   13.1231   24.7162 C   0  0  0  0  0  0  0  0  0  0  0  0
  -17.6067   12.5793   24.8619 H   0  0  0  0  0  0  0  0  0  0  0  0
  -18.6302   13.3847   23.6576 H   0  0  0  0  0  0  0  0  0  0  0  0
  -18.5926   14.3426   25.6196 C   0  0  0  0  0  0  0  0  0  0  0  0
  -19.3818   15.0285   25.2926 H   0  0  0  0  0  0  0  0  0  0  0  0
  -17.6467   14.8912   25.6245 H   0  0  0  0  0  0  0  0  0  0  0  0
  -18.9273   13.7610   26.9876 C   0  0  0  0  0  0  0  0  0  0  0  0
  -19.4025   14.5021   27.6378 H   0  0  0  0  0  0  0  0  0  0  0  0
  -17.9990   13.4446   27.4809 H   0  0  0  0  0  0  0  0  0  0  0  0
  1  2  2  0
  2  3  1  0
  2 19  1  0
  3  4  1  0
  3  5  1  0
  5  6  2  0
  5 17  1  0
  6  7  1  0
  6  8  1  0
  8  9  1  0
  8 16  1  0
  9 10  1  0
  9 11  1  0
  9 12  1  0
 12 13  1  0
 12 14  1  0
 12 15  1  0
 16 17  2  0
 17 18  1  0
 19 20  1  0
 19 21  1  0
 19 30  1  0
 21 22  1  0
 21 23  1  0
 21 24  1  0
 24 25  1  0
 24 26  1  0
 24 27  1  0
 27 28  1  0
 27 29  1  0
 27 30  1  0
 30 31  1  0
 30 32  1  0
M  END
$$$$
