F616_65
     RDKit          3D

 26 26  0  0  0  0  0  0  0  0999 V2000
  -19.0062   12.8501   27.5995 S   0  0  0  0  0  0  0  0  0  0  0  0
  -20.3783   13.1770   27.9209 O   0  0  0  0  0  0  0  0  0  0  0  0
  -18.1778   12.0780   28.5011 O   0  0  0  0  0  0  0  0  0  0  0  0
  -18.1658   14.2714   27.2660 N   0  0  0  0  0  0  0  0  0  0  0  0
  -17.1472   14.1757   27.2596 H   0  0  0  0  0  0  0  0  0  0  0  0
  -18.7449   15.2612   26.3378 C   0  0  0  0  0  0  0  0  0  0  0  0
  -18.2090   15.1829   25.3855 H   0  0  0  0  0  0  0  0  0  0  0  0
  -19.8047   15.0537   26.1539 H   0  0  0  0  0  0  0  0  0  0  0  0
  -18.5693   16.6765   26.8932 C   0  0  0  0  0  0  0  0  0  0  0  0
  -19.4986   17.2507   26.7848 H   0  0  0  0  0  0  0  0  0  0  0  0
  -18.3793   16.6164   27.9724 H   0  0  0  0  0  0  0  0  0  0  0  0
  -17.4293   17.4304   26.2438 C   0  0  0  0  0  0  0  0  0  0  0  0
  -17.6251   18.7383   25.7847 C   0  0  0  0  0  0  0  0  0  0  0  0
  -18.5738   19.1995   25.8777 H   0  0  0  0  0  0  0  0  0  0  0  0
  -16.5737   19.4416   25.2018 C   0  0  0  0  0  0  0  0  0  0  0  0
  -16.7097   20.4315   24.8504 H   0  0  0  0  0  0  0  0  0  0  0  0
  -15.3366   18.8236   25.0890 C   0  0  0  0  0  0  0  0  0  0  0  0
  -14.3234   19.4994   24.5282 F   0  0  0  0  0  0  0  0  0  0  0  0
  -15.1139   17.5308   25.5403 C   0  0  0  0  0  0  0  0  0  0  0  0
  -14.1565   17.0895   25.4459 H   0  0  0  0  0  0  0  0  0  0  0  0
  -16.1707   16.8332   26.1203 C   0  0  0  0  0  0  0  0  0  0  0  0
  -16.0126   15.8468   26.4773 H   0  0  0  0  0  0  0  0  0  0  0  0
  -18.9818   12.0389   26.0155 C   0  0  0  0  0  0  0  0  0  0  0  0
  -19.5454   12.6353   25.2959 H   0  0  0  0  0  0  0  0  0  0  0  0
  -19.4549   11.0612   26.1318 H   0  0  0  0  0  0  0  0  0  0  0  0
  -17.9455   11.9126   25.6977 H   0  0  0  0  0  0  0  0  0  0  0  0
  1  2  2  0
  1  3  2  0
  1  4  1  0
  1 23  1  0
  4  5  1  0
  4  6  1  0
  6  7  1  0
  6  8  1  0
  6  9  1  0
  9 10  1  0
  9 11  1  0
  9 12  1  0
 12 13  1  0
 12 21  2  0
 13 14  1  0
 13 15  2  0
 15 16  1  0
 15 17  1  0
 17 18  1  0
 17 19  2  0
 19 20  1  0
 19 21  1  0
 21 22  1  0
 23 24  1  0
 23 25  1  0
 23 26  1  0
M  END
$$$$
