F488_75
     RDKit          3D

 39 40  0  0  0  0  0  0  0  0999 V2000
  -20.9577   12.0528   24.9434 O   0  0  0  0  0  0  0  0  0  0  0  0
  -20.6639   12.4235   26.0756 C   0  0  0  0  0  0  0  0  0  0  0  0
  -21.6294   12.2037   27.2392 C   0  0  0  0  0  0  0  0  0  0  0  0
  -22.3123   11.3979   26.9448 H   0  0  0  0  0  0  0  0  0  0  0  0
  -21.0870   11.8222   28.1129 H   0  0  0  0  0  0  0  0  0  0  0  0
  -22.4213   13.3277   27.5857 O   0  0  0  0  0  0  0  0  0  0  0  0
  -23.3667   13.1932   28.5703 C   0  0  0  0  0  0  0  0  0  0  0  0
  -23.1470   12.6680   29.8431 C   0  0  0  0  0  0  0  0  0  0  0  0
  -22.1913   12.3177   30.1334 H   0  0  0  0  0  0  0  0  0  0  0  0
  -24.2043   12.6005   30.7450 C   0  0  0  0  0  0  0  0  0  0  0  0
  -24.0402   12.2071   31.7162 H   0  0  0  0  0  0  0  0  0  0  0  0
  -25.4758   13.0435   30.3795 C   0  0  0  0  0  0  0  0  0  0  0  0
  -26.6058   12.9984   31.3683 C   0  0  0  0  0  0  0  0  0  0  0  0
  -26.6430   13.9347   31.9338 H   0  0  0  0  0  0  0  0  0  0  0  0
  -27.5643   12.8519   30.8610 H   0  0  0  0  0  0  0  0  0  0  0  0
  -26.4789   12.1670   32.0690 H   0  0  0  0  0  0  0  0  0  0  0  0
  -25.6844   13.5572   29.0986 C   0  0  0  0  0  0  0  0  0  0  0  0
  -26.6478   13.8906   28.8114 H   0  0  0  0  0  0  0  0  0  0  0  0
  -24.6320   13.6291   28.1913 C   0  0  0  0  0  0  0  0  0  0  0  0
  -24.7896   14.0103   27.2155 H   0  0  0  0  0  0  0  0  0  0  0  0
  -19.4763   13.0522   26.2741 N   0  0  0  0  0  0  0  0  0  0  0  0
  -18.4916   13.1302   25.1854 C   0  0  0  0  0  0  0  0  0  0  0  0
  -17.6541   12.4813   25.4721 H   0  0  0  0  0  0  0  0  0  0  0  0
  -18.8930   12.7373   24.2466 H   0  0  0  0  0  0  0  0  0  0  0  0
  -17.9931   14.5603   24.9625 C   0  0  0  0  0  0  0  0  0  0  0  0
  -18.7999   15.2215   24.6295 H   0  0  0  0  0  0  0  0  0  0  0  0
  -17.1719   14.5780   24.2401 H   0  0  0  0  0  0  0  0  0  0  0  0
  -17.4600   15.1239   26.2707 N   0  0  0  0  0  0  0  0  0  0  0  0
  -16.6862   14.5172   26.5775 H   0  0  0  0  0  0  0  0  0  0  0  0
  -16.8850   16.4990   26.0932 C   0  0  0  0  0  0  0  0  0  0  0  0
  -16.4718   16.8195   27.0533 H   0  0  0  0  0  0  0  0  0  0  0  0
  -16.0891   16.4390   25.3456 H   0  0  0  0  0  0  0  0  0  0  0  0
  -17.6810   17.1721   25.7649 H   0  0  0  0  0  0  0  0  0  0  0  0
  -18.5263   15.0908   27.3519 C   0  0  0  0  0  0  0  0  0  0  0  0
  -19.3289   15.7649   27.0337 H   0  0  0  0  0  0  0  0  0  0  0  0
  -18.0719   15.4645   28.2746 H   0  0  0  0  0  0  0  0  0  0  0  0
  -19.0481   13.6586   27.5422 C   0  0  0  0  0  0  0  0  0  0  0  0
  -19.8594   13.6865   28.2712 H   0  0  0  0  0  0  0  0  0  0  0  0
  -18.2555   13.0194   27.9505 H   0  0  0  0  0  0  0  0  0  0  0  0
  1  2  2  0
  2  3  1  0
  2 21  1  0
  3  4  1  0
  3  5  1  0
  3  6  1  0
  6  7  1  0
  7  8  1  0
  7 19  2  0
  8  9  1  0
  8 10  2  0
 10 11  1  0
 10 12  1  0
 12 13  1  0
 12 17  2  0
 13 14  1  0
 13 15  1  0
 13 16  1  0
 17 18  1  0
 17 19  1  0
 19 20  1  0
 21 22  1  0
 21 37  1  0
 22 23  1  0
 22 24  1  0
 22 25  1  0
 25 26  1  0
 25 27  1  0
 25 28  1  0
 28 29  1  0
 28 30  1  0
 28 34  1  0
 30 31  1  0
 30 32  1  0
 30 33  1  0
 34 35  1  0
 34 36  1  0
 34 37  1  0
 37 38  1  0
 37 39  1  0
M  END
$$$$
