F741_97
     RDKit          3D

 25 27  0  0  0  0  0  0  0  0999 V2000
  -19.6072   12.2023   28.9199 O   0  0  0  0  0  0  0  0  0  0  0  0
  -20.7149   12.1477   28.3890 C   0  0  0  0  0  0  0  0  0  0  0  0
  -20.7828   12.0579   27.0309 N   0  0  0  0  0  0  0  0  0  0  0  0
  -21.7366   12.0007   26.6378 H   0  0  0  0  0  0  0  0  0  0  0  0
  -19.6551   12.0313   26.1606 C   0  0  0  0  0  0  0  0  0  0  0  0
  -18.9363   11.2580   26.4217 H   0  0  0  0  0  0  0  0  0  0  0  0
  -19.0897   13.3072   25.5977 C   0  0  0  0  0  0  0  0  0  0  0  0
  -19.5812   14.2438   25.8312 H   0  0  0  0  0  0  0  0  0  0  0  0
  -18.0129   13.3810   25.5007 H   0  0  0  0  0  0  0  0  0  0  0  0
  -19.8096   12.3460   24.6984 C   0  0  0  0  0  0  0  0  0  0  0  0
  -19.2247   11.7655   23.9955 H   0  0  0  0  0  0  0  0  0  0  0  0
  -20.7916   12.6273   24.3355 H   0  0  0  0  0  0  0  0  0  0  0  0
  -21.9666   12.1639   29.1097 C   0  0  0  0  0  0  0  0  0  0  0  0
  -23.1845   12.5510   28.6093 C   0  0  0  0  0  0  0  0  0  0  0  0
  -24.0546   12.3908   29.6617 N   0  0  0  0  0  0  0  0  0  0  0  0
  -23.4483   11.9235   30.7852 N   0  0  0  0  0  0  0  0  0  0  0  0
  -22.1915   11.7931   30.4347 C   0  0  0  0  0  0  0  0  0  0  0  0
  -21.4388   11.4422   31.0963 H   0  0  0  0  0  0  0  0  0  0  0  0
  -25.4166   12.6910   29.5341 C   0  0  0  0  0  0  0  0  0  0  0  0
  -26.0073   12.5363   30.3992 H   0  0  0  0  0  0  0  0  0  0  0  0
  -25.8216   13.1490   28.3099 C   0  0  0  0  0  0  0  0  0  0  0  0
  -26.8352   13.3991   28.1344 H   0  0  0  0  0  0  0  0  0  0  0  0
  -24.8834   13.3024   27.2363 C   0  0  0  0  0  0  0  0  0  0  0  0
  -25.2209   13.6593   26.2971 H   0  0  0  0  0  0  0  0  0  0  0  0
  -23.6151   13.0202   27.3611 N   0  0  0  0  0  0  0  0  0  0  0  0
  1  2  2  0
  2  3  1  0
  2 13  1  0
  3  4  1  0
  3  5  1  0
  5  6  1  0
  5  7  1  0
  5 10  1  0
  7  8  1  0
  7  9  1  0
  7 10  1  0
 10 11  1  0
 10 12  1  0
 13 14  2  0
 13 17  1  0
 14 15  1  0
 14 25  1  0
 15 16  1  0
 15 19  1  0
 16 17  2  0
 17 18  1  0
 19 20  1  0
 19 21  2  0
 21 22  1  0
 21 23  1  0
 23 24  1  0
 23 25  2  0
M  END
$$$$
