F275_85
     RDKit          3D

 20 20  0  0  0  0  0  0  0  0999 V2000
  -18.1671   13.1059   23.4667 S   0  0  0  0  0  0  0  0  0  0  0  0
  -19.0655   12.3317   22.6414 O   0  0  0  0  0  0  0  0  0  0  0  0
  -17.5816   14.3477   23.0101 O   0  0  0  0  0  0  0  0  0  0  0  0
  -16.8947   12.0889   23.9027 N   0  0  0  0  0  0  0  0  0  0  0  0
  -15.9855   12.4654   23.6250 H   0  0  0  0  0  0  0  0  0  0  0  0
  -16.9435   11.8046   24.8845 H   0  0  0  0  0  0  0  0  0  0  0  0
  -18.9389   13.3913   25.0230 C   0  0  0  0  0  0  0  0  0  0  0  0
  -18.6818   14.5668   25.7347 C   0  0  0  0  0  0  0  0  0  0  0  0
  -18.0036   15.2887   25.3591 H   0  0  0  0  0  0  0  0  0  0  0  0
  -19.3323   14.7788   26.9408 C   0  0  0  0  0  0  0  0  0  0  0  0
  -19.0789   15.9065   27.6207 F   0  0  0  0  0  0  0  0  0  0  0  0
  -20.2394   13.8714   27.4671 C   0  0  0  0  0  0  0  0  0  0  0  0
  -20.7172   14.0742   28.3909 H   0  0  0  0  0  0  0  0  0  0  0  0
  -20.5100   12.7026   26.7592 C   0  0  0  0  0  0  0  0  0  0  0  0
  -21.5217   11.7215   27.2751 C   0  0  0  0  0  0  0  0  0  0  0  0
  -21.5609   11.7377   28.3694 H   0  0  0  0  0  0  0  0  0  0  0  0
  -21.2634   10.7007   26.9751 H   0  0  0  0  0  0  0  0  0  0  0  0
  -22.5131   11.9649   26.8820 H   0  0  0  0  0  0  0  0  0  0  0  0
  -19.8639   12.4741   25.5408 C   0  0  0  0  0  0  0  0  0  0  0  0
  -20.0773   11.5923   24.9887 H   0  0  0  0  0  0  0  0  0  0  0  0
  1  2  2  0
  1  3  2  0
  1  4  1  0
  1  7  1  0
  4  5  1  0
  4  6  1  0
  7  8  1  0
  7 19  2  0
  8  9  1  0
  8 10  2  0
 10 11  1  0
 10 12  1  0
 12 13  1  0
 12 14  2  0
 14 15  1  0
 14 19  1  0
 15 16  1  0
 15 17  1  0
 15 18  1  0
 19 20  1  0
M  END
$$$$
