F740_42
     RDKit          3D

 26 28  0  0  0  0  0  0  0  0999 V2000
  -20.5621   12.7685   28.8534 O   0  0  0  0  0  0  0  0  0  0  0  0
  -21.3448   12.6363   27.9179 C   0  0  0  0  0  0  0  0  0  0  0  0
  -20.8349   12.2384   26.7077 N   0  0  0  0  0  0  0  0  0  0  0  0
  -21.4927   12.0158   25.9552 H   0  0  0  0  0  0  0  0  0  0  0  0
  -19.4375   12.0879   26.4502 C   0  0  0  0  0  0  0  0  0  0  0  0
  -19.0971   11.0597   26.5537 H   0  0  0  0  0  0  0  0  0  0  0  0
  -18.4591   13.1597   26.8473 C   0  0  0  0  0  0  0  0  0  0  0  0
  -18.8353   14.0713   27.2958 H   0  0  0  0  0  0  0  0  0  0  0  0
  -17.4926   12.8454   27.2233 H   0  0  0  0  0  0  0  0  0  0  0  0
  -18.7593   12.9207   25.3972 C   0  0  0  0  0  0  0  0  0  0  0  0
  -18.0035   12.4383   24.7894 H   0  0  0  0  0  0  0  0  0  0  0  0
  -19.3497   13.6593   24.8687 H   0  0  0  0  0  0  0  0  0  0  0  0
  -22.8041   12.8335   28.0583 C   0  0  0  0  0  0  0  0  0  0  0  0
  -23.2578   14.0028   28.6981 C   0  0  0  0  0  0  0  0  0  0  0  0
  -22.5712   14.7175   29.0715 H   0  0  0  0  0  0  0  0  0  0  0  0
  -24.6212   14.2038   28.8333 C   0  0  0  0  0  0  0  0  0  0  0  0
  -25.2168   15.2713   29.4260 O   0  0  0  0  0  0  0  0  0  0  0  0
  -26.6095   14.9294   29.2672 C   0  0  0  0  0  0  0  0  0  0  0  0
  -27.0707   14.8676   30.2587 H   0  0  0  0  0  0  0  0  0  0  0  0
  -27.1035   15.7254   28.6981 H   0  0  0  0  0  0  0  0  0  0  0  0
  -26.8170   13.6759   28.5827 O   0  0  0  0  0  0  0  0  0  0  0  0
  -25.5321   13.2959   28.3527 C   0  0  0  0  0  0  0  0  0  0  0  0
  -25.1250   12.1372   27.7068 C   0  0  0  0  0  0  0  0  0  0  0  0
  -25.8431   11.4515   27.3352 H   0  0  0  0  0  0  0  0  0  0  0  0
  -23.7561   11.9108   27.5576 C   0  0  0  0  0  0  0  0  0  0  0  0
  -23.4322   11.0387   27.0495 H   0  0  0  0  0  0  0  0  0  0  0  0
  1  2  2  0
  2  3  1  0
  2 13  1  0
  3  4  1  0
  3  5  1  0
  5  6  1  0
  5  7  1  0
  5 10  1  0
  7  8  1  0
  7  9  1  0
  7 10  1  0
 10 11  1  0
 10 12  1  0
 13 14  1  0
 13 25  2  0
 14 15  1  0
 14 16  2  0
 16 17  1  0
 16 22  1  0
 17 18  1  0
 18 19  1  0
 18 20  1  0
 18 21  1  0
 21 22  1  0
 22 23  2  0
 23 24  1  0
 23 25  1  0
 25 26  1  0
M  END
$$$$
