F618_42
     RDKit          3D

 26 26  0  0  0  0  0  0  0  0999 V2000
  -19.5247   12.1404   29.1005 F   0  0  0  0  0  0  0  0  0  0  0  0
  -20.6354   12.3929   28.3906 C   0  0  0  0  0  0  0  0  0  0  0  0
  -20.5863   12.8238   27.0521 C   0  0  0  0  0  0  0  0  0  0  0  0
  -19.3714   12.9881   26.3676 N   0  0  0  0  0  0  0  0  0  0  0  0
  -19.1296   14.2885   25.6992 C   0  0  0  0  0  0  0  0  0  0  0  0
  -18.8433   14.0962   24.1983 C   0  0  0  0  0  0  0  0  0  0  0  0
  -19.0939   15.0057   23.6416 H   0  0  0  0  0  0  0  0  0  0  0  0
  -19.4359   13.2783   23.7769 H   0  0  0  0  0  0  0  0  0  0  0  0
  -17.4689   13.8018   23.9572 O   0  0  0  0  0  0  0  0  0  0  0  0
  -17.3986   13.7136   22.9896 H   0  0  0  0  0  0  0  0  0  0  0  0
  -18.0169   15.0967   26.3780 C   0  0  0  0  0  0  0  0  0  0  0  0
  -17.9960   16.1168   25.9778 H   0  0  0  0  0  0  0  0  0  0  0  0
  -17.0236   14.6701   26.2106 H   0  0  0  0  0  0  0  0  0  0  0  0
  -18.1843   15.1652   27.4574 H   0  0  0  0  0  0  0  0  0  0  0  0
  -18.3868   11.9166   26.3281 C   0  0  0  0  0  0  0  0  0  0  0  0
  -17.8603   11.8387   27.2850 H   0  0  0  0  0  0  0  0  0  0  0  0
  -17.6337   12.0705   25.5497 H   0  0  0  0  0  0  0  0  0  0  0  0
  -18.8556   10.9551   26.0867 H   0  0  0  0  0  0  0  0  0  0  0  0
  -21.7073   13.0862   26.3627 N   0  0  0  0  0  0  0  0  0  0  0  0
  -22.8875   12.9452   26.9790 C   0  0  0  0  0  0  0  0  0  0  0  0
  -23.7623   13.1616   26.4213 H   0  0  0  0  0  0  0  0  0  0  0  0
  -22.9960   12.5301   28.3077 C   0  0  0  0  0  0  0  0  0  0  0  0
  -23.9505   12.4327   28.7551 H   0  0  0  0  0  0  0  0  0  0  0  0
  -21.8464   12.2434   29.0393 C   0  0  0  0  0  0  0  0  0  0  0  0
  -21.8895   11.9233   30.0479 H   0  0  0  0  0  0  0  0  0  0  0  0
  -20.0231   14.9205   25.7924 H   0  0  0  0  0  0  0  0  0  0  0  0
  1  2  1  0
  2  3  1  0
  2 24  2  0
  3  4  1  0
  3 19  2  0
  4  5  1  0
  4 15  1  0
  5  6  1  0
  5 11  1  0
  5 26  1  0
  6  7  1  0
  6  8  1  0
  6  9  1  0
  9 10  1  0
 11 12  1  0
 11 13  1  0
 11 14  1  0
 15 16  1  0
 15 17  1  0
 15 18  1  0
 19 20  1  0
 20 21  1  0
 20 22  2  0
 22 23  1  0
 22 24  1  0
 24 25  1  0
M  END
$$$$
