F709_49
     RDKit          3D

 29 30  0  0  0  0  0  0  0  0999 V2000
  -15.8310   15.3374   25.7839 O   0  0  0  0  0  0  0  0  0  0  0  0
  -16.9820   15.6602   26.0280 C   0  0  0  0  0  0  0  0  0  0  0  0
  -17.2545   16.9193   26.3769 N   0  0  0  0  0  0  0  0  0  0  0  0
  -17.8491   17.4254   25.7115 H   0  0  0  0  0  0  0  0  0  0  0  0
  -17.3762   17.0962   27.3770 H   0  0  0  0  0  0  0  0  0  0  0  0
  -18.0482   14.8027   25.9546 N   0  0  0  0  0  0  0  0  0  0  0  0
  -17.8551   13.4789   25.3557 C   0  0  0  0  0  0  0  0  0  0  0  0
  -16.8134   13.3216   25.0572 H   0  0  0  0  0  0  0  0  0  0  0  0
  -18.4656   13.4486   24.4451 H   0  0  0  0  0  0  0  0  0  0  0  0
  -18.2917   12.3738   26.3171 C   0  0  0  0  0  0  0  0  0  0  0  0
  -17.6510   12.3782   27.2072 H   0  0  0  0  0  0  0  0  0  0  0  0
  -18.1740   11.3973   25.8390 H   0  0  0  0  0  0  0  0  0  0  0  0
  -19.6669   12.5873   26.7928 N   0  0  0  0  0  0  0  0  0  0  0  0
  -20.6082   11.5671   26.6964 C   0  0  0  0  0  0  0  0  0  0  0  0
  -20.3264   10.6315   25.9470 O   0  0  0  0  0  0  0  0  0  0  0  0
  -21.8506   11.6133   27.4348 C   0  0  0  0  0  0  0  0  0  0  0  0
  -23.0514   11.4940   26.7922 O   0  0  0  0  0  0  0  0  0  0  0  0
  -24.0335   11.6293   27.7105 C   0  0  0  0  0  0  0  0  0  0  0  0
  -25.0505   11.5574   27.4205 H   0  0  0  0  0  0  0  0  0  0  0  0
  -23.4887   11.8516   28.9288 C   0  0  0  0  0  0  0  0  0  0  0  0
  -24.0200   11.9974   29.8331 H   0  0  0  0  0  0  0  0  0  0  0  0
  -22.0840   11.8584   28.7561 C   0  0  0  0  0  0  0  0  0  0  0  0
  -21.3386   12.0194   29.4927 H   0  0  0  0  0  0  0  0  0  0  0  0
  -19.9142   13.9212   27.3577 C   0  0  0  0  0  0  0  0  0  0  0  0
  -20.9771   14.0927   27.5367 H   0  0  0  0  0  0  0  0  0  0  0  0
  -19.3878   13.9613   28.3182 H   0  0  0  0  0  0  0  0  0  0  0  0
  -19.4157   15.0479   26.4338 C   0  0  0  0  0  0  0  0  0  0  0  0
  -19.4971   15.9949   26.9720 H   0  0  0  0  0  0  0  0  0  0  0  0
  -20.0532   15.1096   25.5435 H   0  0  0  0  0  0  0  0  0  0  0  0
  1  2  2  0
  2  3  1  0
  2  6  1  0
  3  4  1  0
  3  5  1  0
  6  7  1  0
  6 27  1  0
  7  8  1  0
  7  9  1  0
  7 10  1  0
 10 11  1  0
 10 12  1  0
 10 13  1  0
 13 14  1  0
 13 24  1  0
 14 15  2  0
 14 16  1  0
 16 17  1  0
 16 22  2  0
 17 18  1  0
 18 19  1  0
 18 20  2  0
 20 21  1  0
 20 22  1  0
 22 23  1  0
 24 25  1  0
 24 26  1  0
 24 27  1  0
 27 28  1  0
 27 29  1  0
M  END
$$$$
