F616_12
     RDKit          3D

 26 26  0  0  0  0  0  0  0  0999 V2000
  -18.7346   12.8481   25.9858 S   0  0  0  0  0  0  0  0  0  0  0  0
  -18.2134   11.5175   26.2105 O   0  0  0  0  0  0  0  0  0  0  0  0
  -18.1959   14.0016   26.6746 O   0  0  0  0  0  0  0  0  0  0  0  0
  -20.3947   12.8441   26.2717 N   0  0  0  0  0  0  0  0  0  0  0  0
  -20.9404   12.2734   25.6212 H   0  0  0  0  0  0  0  0  0  0  0  0
  -20.8972   12.9360   27.6557 C   0  0  0  0  0  0  0  0  0  0  0  0
  -20.3424   12.2129   28.2637 H   0  0  0  0  0  0  0  0  0  0  0  0
  -20.7265   13.9358   28.0697 H   0  0  0  0  0  0  0  0  0  0  0  0
  -22.3869   12.5882   27.7042 C   0  0  0  0  0  0  0  0  0  0  0  0
  -22.9678   13.2979   27.1008 H   0  0  0  0  0  0  0  0  0  0  0  0
  -22.5402   11.6056   27.2399 H   0  0  0  0  0  0  0  0  0  0  0  0
  -22.9404   12.5484   29.1119 C   0  0  0  0  0  0  0  0  0  0  0  0
  -22.9715   11.3408   29.8191 C   0  0  0  0  0  0  0  0  0  0  0  0
  -22.6211   10.4493   29.3677 H   0  0  0  0  0  0  0  0  0  0  0  0
  -23.4645   11.3033   31.1213 C   0  0  0  0  0  0  0  0  0  0  0  0
  -23.4935   10.3956   31.6664 H   0  0  0  0  0  0  0  0  0  0  0  0
  -23.9183   12.4803   31.6990 C   0  0  0  0  0  0  0  0  0  0  0  0
  -24.3930   12.4458   32.9525 F   0  0  0  0  0  0  0  0  0  0  0  0
  -23.8938   13.6914   31.0226 C   0  0  0  0  0  0  0  0  0  0  0  0
  -24.2410   14.5733   31.4935 H   0  0  0  0  0  0  0  0  0  0  0  0
  -23.4012   13.7205   29.7201 C   0  0  0  0  0  0  0  0  0  0  0  0
  -23.3690   14.6410   29.1940 H   0  0  0  0  0  0  0  0  0  0  0  0
  -18.6723   13.1847   24.2392 C   0  0  0  0  0  0  0  0  0  0  0  0
  -19.1338   12.3583   23.6957 H   0  0  0  0  0  0  0  0  0  0  0  0
  -17.6222   13.2717   23.9514 H   0  0  0  0  0  0  0  0  0  0  0  0
  -19.1892   14.1250   24.0405 H   0  0  0  0  0  0  0  0  0  0  0  0
  1  2  2  0
  1  3  2  0
  1  4  1  0
  1 23  1  0
  4  5  1  0
  4  6  1  0
  6  7  1  0
  6  8  1  0
  6  9  1  0
  9 10  1  0
  9 11  1  0
  9 12  1  0
 12 13  1  0
 12 21  2  0
 13 14  1  0
 13 15  2  0
 15 16  1  0
 15 17  1  0
 17 18  1  0
 17 19  2  0
 19 20  1  0
 19 21  1  0
 21 22  1  0
 23 24  1  0
 23 25  1  0
 23 26  1  0
M  END
$$$$
