F709_66
     RDKit          3D

 29 30  0  0  0  0  0  0  0  0999 V2000
  -19.8246   11.2952   25.3142 O   0  0  0  0  0  0  0  0  0  0  0  0
  -19.5265   12.2379   24.5992 C   0  0  0  0  0  0  0  0  0  0  0  0
  -19.4316   12.0611   23.2797 N   0  0  0  0  0  0  0  0  0  0  0  0
  -20.2474   12.3841   22.7480 H   0  0  0  0  0  0  0  0  0  0  0  0
  -18.5011   12.1813   22.8721 H   0  0  0  0  0  0  0  0  0  0  0  0
  -19.2885   13.5045   25.0643 N   0  0  0  0  0  0  0  0  0  0  0  0
  -19.6024   13.8191   26.4609 C   0  0  0  0  0  0  0  0  0  0  0  0
  -19.9768   12.9401   26.9959 H   0  0  0  0  0  0  0  0  0  0  0  0
  -20.4084   14.5628   26.4471 H   0  0  0  0  0  0  0  0  0  0  0  0
  -18.3796   14.3840   27.1834 C   0  0  0  0  0  0  0  0  0  0  0  0
  -17.5914   13.6233   27.2346 H   0  0  0  0  0  0  0  0  0  0  0  0
  -18.6436   14.6457   28.2118 H   0  0  0  0  0  0  0  0  0  0  0  0
  -17.8075   15.5283   26.4578 N   0  0  0  0  0  0  0  0  0  0  0  0
  -17.5706   16.7297   27.1186 C   0  0  0  0  0  0  0  0  0  0  0  0
  -18.1253   16.8733   28.2086 O   0  0  0  0  0  0  0  0  0  0  0  0
  -16.7227   17.7519   26.5468 C   0  0  0  0  0  0  0  0  0  0  0  0
  -15.6365   17.4162   25.7876 O   0  0  0  0  0  0  0  0  0  0  0  0
  -15.0021   18.5564   25.4362 C   0  0  0  0  0  0  0  0  0  0  0  0
  -14.1330   18.5202   24.8305 H   0  0  0  0  0  0  0  0  0  0  0  0
  -15.6484   19.6187   25.9696 C   0  0  0  0  0  0  0  0  0  0  0  0
  -15.3733   20.6355   25.8615 H   0  0  0  0  0  0  0  0  0  0  0  0
  -16.7481   19.1071   26.6991 C   0  0  0  0  0  0  0  0  0  0  0  0
  -17.4650   19.6496   27.2612 H   0  0  0  0  0  0  0  0  0  0  0  0
  -17.5225   15.2677   25.0400 C   0  0  0  0  0  0  0  0  0  0  0  0
  -17.2646   16.1836   24.5053 H   0  0  0  0  0  0  0  0  0  0  0  0
  -16.6607   14.5913   25.0089 H   0  0  0  0  0  0  0  0  0  0  0  0
  -18.7207   14.6316   24.3111 C   0  0  0  0  0  0  0  0  0  0  0  0
  -18.3963   14.3338   23.3115 H   0  0  0  0  0  0  0  0  0  0  0  0
  -19.5241   15.3699   24.1994 H   0  0  0  0  0  0  0  0  0  0  0  0
  1  2  2  0
  2  3  1  0
  2  6  1  0
  3  4  1  0
  3  5  1  0
  6  7  1  0
  6 27  1  0
  7  8  1  0
  7  9  1  0
  7 10  1  0
 10 11  1  0
 10 12  1  0
 10 13  1  0
 13 14  1  0
 13 24  1  0
 14 15  2  0
 14 16  1  0
 16 17  1  0
 16 22  2  0
 17 18  1  0
 18 19  1  0
 18 20  2  0
 20 21  1  0
 20 22  1  0
 22 23  1  0
 24 25  1  0
 24 26  1  0
 24 27  1  0
 27 28  1  0
 27 29  1  0
M  END
$$$$
