F369_37
     RDKit          3D

 32 33  0  0  0  0  0  0  0  0999 V2000
  -22.1780   13.9695   28.8502 O   0  0  0  0  0  0  0  0  0  0  0  0
  -22.3639   12.7716   28.7637 C   0  0  0  0  0  0  0  0  0  0  0  0
  -21.6193   12.0085   27.9097 N   0  0  0  0  0  0  0  0  0  0  0  0
  -21.8658   11.0139   27.9170 H   0  0  0  0  0  0  0  0  0  0  0  0
  -20.6035   12.4132   27.0569 C   0  0  0  0  0  0  0  0  0  0  0  0
  -20.0934   13.6537   26.9126 C   0  0  0  0  0  0  0  0  0  0  0  0
  -20.3229   14.5703   27.3891 H   0  0  0  0  0  0  0  0  0  0  0  0
  -19.1349   13.5281   25.9638 N   0  0  0  0  0  0  0  0  0  0  0  0
  -18.2815   14.5660   25.4252 C   0  0  0  0  0  0  0  0  0  0  0  0
  -17.5388   14.0825   24.7816 H   0  0  0  0  0  0  0  0  0  0  0  0
  -18.9007   15.2156   24.7966 H   0  0  0  0  0  0  0  0  0  0  0  0
  -17.6044   15.3778   26.5152 C   0  0  0  0  0  0  0  0  0  0  0  0
  -16.9702   14.7444   27.1442 H   0  0  0  0  0  0  0  0  0  0  0  0
  -18.3433   15.8595   27.1651 H   0  0  0  0  0  0  0  0  0  0  0  0
  -16.9773   16.1581   26.0741 H   0  0  0  0  0  0  0  0  0  0  0  0
  -19.0222   12.2453   25.5096 N   0  0  0  0  0  0  0  0  0  0  0  0
  -19.9226   11.5736   26.1801 C   0  0  0  0  0  0  0  0  0  0  0  0
  -20.0900   10.5353   26.0565 H   0  0  0  0  0  0  0  0  0  0  0  0
  -23.4322   12.0508   29.5724 C   0  0  0  0  0  0  0  0  0  0  0  0
  -24.0323   11.4705   28.8602 H   0  0  0  0  0  0  0  0  0  0  0  0
  -22.8367   11.1096   30.6278 C   0  0  0  0  0  0  0  0  0  0  0  0
  -22.8548   10.0675   30.2912 H   0  0  0  0  0  0  0  0  0  0  0  0
  -21.7938   11.3534   30.8576 H   0  0  0  0  0  0  0  0  0  0  0  0
  -23.7026   11.3003   31.8650 C   0  0  0  0  0  0  0  0  0  0  0  0
  -24.6001   10.6741   31.7975 H   0  0  0  0  0  0  0  0  0  0  0  0
  -23.1740   11.0412   32.7865 H   0  0  0  0  0  0  0  0  0  0  0  0
  -24.0836   12.7690   31.8089 C   0  0  0  0  0  0  0  0  0  0  0  0
  -23.2472   13.3914   32.1452 H   0  0  0  0  0  0  0  0  0  0  0  0
  -24.9501   12.9976   32.4355 H   0  0  0  0  0  0  0  0  0  0  0  0
  -24.3636   13.0087   30.3304 C   0  0  0  0  0  0  0  0  0  0  0  0
  -24.2360   14.0614   30.0593 H   0  0  0  0  0  0  0  0  0  0  0  0
  -25.4063   12.7422   30.1139 H   0  0  0  0  0  0  0  0  0  0  0  0
  1  2  2  0
  2  3  1  0
  2 19  1  0
  3  4  1  0
  3  5  1  0
  5  6  2  0
  5 17  1  0
  6  7  1  0
  6  8  1  0
  8  9  1  0
  8 16  1  0
  9 10  1  0
  9 11  1  0
  9 12  1  0
 12 13  1  0
 12 14  1  0
 12 15  1  0
 16 17  2  0
 17 18  1  0
 19 20  1  0
 19 21  1  0
 19 30  1  0
 21 22  1  0
 21 23  1  0
 21 24  1  0
 24 25  1  0
 24 26  1  0
 24 27  1  0
 27 28  1  0
 27 29  1  0
 27 30  1  0
 30 31  1  0
 30 32  1  0
M  END
$$$$
