F14_81
     RDKit          3D

 19 19  0  0  0  0  0  0  0  0999 V2000
  -18.7821   11.4293   26.4166 Br  0  0  0  0  0  0  0  0  0  0  0  0
  -20.2577   12.2825   27.1770 C   0  0  0  0  0  0  0  0  0  0  0  0
  -21.4880   11.7738   27.4023 C   0  0  0  0  0  0  0  0  0  0  0  0
  -21.9036   10.8193   27.2061 H   0  0  0  0  0  0  0  0  0  0  0  0
  -22.2024   12.7736   27.9646 N   0  0  0  0  0  0  0  0  0  0  0  0
  -23.5815   12.7481   28.4097 C   0  0  0  0  0  0  0  0  0  0  0  0
  -24.2000   13.0807   27.5687 H   0  0  0  0  0  0  0  0  0  0  0  0
  -23.8271   11.7043   28.6313 H   0  0  0  0  0  0  0  0  0  0  0  0
  -23.7973   13.6228   29.6352 C   0  0  0  0  0  0  0  0  0  0  0  0
  -23.1280   13.3339   30.4541 H   0  0  0  0  0  0  0  0  0  0  0  0
  -24.8347   13.5208   29.9722 H   0  0  0  0  0  0  0  0  0  0  0  0
  -23.5705   14.9898   29.2806 O   0  0  0  0  0  0  0  0  0  0  0  0
  -23.7503   15.8584   30.3915 C   0  0  0  0  0  0  0  0  0  0  0  0
  -23.5780   16.8848   30.0575 H   0  0  0  0  0  0  0  0  0  0  0  0
  -23.0313   15.6224   31.1812 H   0  0  0  0  0  0  0  0  0  0  0  0
  -24.7716   15.7818   30.7762 H   0  0  0  0  0  0  0  0  0  0  0  0
  -21.4644   13.9107   28.1000 N   0  0  0  0  0  0  0  0  0  0  0  0
  -20.2866   13.6000   27.6217 C   0  0  0  0  0  0  0  0  0  0  0  0
  -19.4739   14.2788   27.5838 H   0  0  0  0  0  0  0  0  0  0  0  0
  1  2  1  0
  2  3  2  0
  2 18  1  0
  3  4  1  0
  3  5  1  0
  5  6  1  0
  5 17  1  0
  6  7  1  0
  6  8  1  0
  6  9  1  0
  9 10  1  0
  9 11  1  0
  9 12  1  0
 12 13  1  0
 13 14  1  0
 13 15  1  0
 13 16  1  0
 17 18  2  0
 18 19  1  0
M  END
$$$$
