F5_7
     RDKit          3D

 21 21  0  0  0  0  0  0  0  0999 V2000
  -22.4776    9.9234   32.9929 Br  0  0  0  0  0  0  0  0  0  0  0  0
  -22.7806   10.8598   31.3768 C   0  0  0  0  0  0  0  0  0  0  0  0
  -22.9643   12.2382   31.3935 C   0  0  0  0  0  0  0  0  0  0  0  0
  -22.9394   12.7750   32.3034 H   0  0  0  0  0  0  0  0  0  0  0  0
  -23.1898   12.9145   30.1982 C   0  0  0  0  0  0  0  0  0  0  0  0
  -23.3856   14.2690   30.2718 O   0  0  0  0  0  0  0  0  0  0  0  0
  -24.7396   14.7250   30.5079 C   0  0  0  0  0  0  0  0  0  0  0  0
  -24.7658   15.8026   30.3544 H   0  0  0  0  0  0  0  0  0  0  0  0
  -25.0112   14.4702   31.5313 H   0  0  0  0  0  0  0  0  0  0  0  0
  -25.4091   14.2275   29.8070 H   0  0  0  0  0  0  0  0  0  0  0  0
  -23.2193   12.2385   28.9706 C   0  0  0  0  0  0  0  0  0  0  0  0
  -23.4247   12.9538   27.6349 C   0  0  0  0  0  0  0  0  0  0  0  0
  -22.7147   12.5697   26.9190 H   0  0  0  0  0  0  0  0  0  0  0  0
  -23.3528   14.0228   27.7468 H   0  0  0  0  0  0  0  0  0  0  0  0
  -24.8081   12.6342   27.1150 C   0  0  0  0  0  0  0  0  0  0  0  0
  -25.0247   12.8262   25.8971 O   0  0  0  0  0  0  0  0  0  0  0  0
  -25.6674   12.2469   27.9380 O   0  0  0  0  0  0  0  0  0  0  0  0
  -23.0406   10.8561   28.9746 C   0  0  0  0  0  0  0  0  0  0  0  0
  -23.0807   10.3239   28.0560 H   0  0  0  0  0  0  0  0  0  0  0  0
  -22.8230   10.1692   30.1665 C   0  0  0  0  0  0  0  0  0  0  0  0
  -22.6934    9.1186   30.1513 H   0  0  0  0  0  0  0  0  0  0  0  0
  1  2  1  0
  2  3  1  0
  2 20  2  0
  3  4  1  0
  3  5  2  0
  5  6  1  0
  5 11  1  0
  6  7  1  0
  7  8  1  0
  7  9  1  0
  7 10  1  0
 11 12  1  0
 11 18  2  0
 12 13  1  0
 12 14  1  0
 12 15  1  0
 15 16  1  0
 15 17  2  0
 18 19  1  0
 18 20  1  0
 20 21  1  0
M  END
$$$$
