F650_6
     RDKit          3D

 23 24  0  0  0  0  0  0  0  0999 V2000
  -19.5167   16.9655   25.8624 O   0  0  0  0  0  0  0  0  0  0  0  0
  -18.5648   16.2441   26.1435 C   0  0  0  0  0  0  0  0  0  0  0  0
  -17.3530   16.8697   26.3876 N   0  0  0  0  0  0  0  0  0  0  0  0
  -16.0562   16.2493   26.6358 C   0  0  0  0  0  0  0  0  0  0  0  0
  -16.0997   15.5424   27.4652 H   0  0  0  0  0  0  0  0  0  0  0  0
  -15.7540   15.7220   25.7249 H   0  0  0  0  0  0  0  0  0  0  0  0
  -15.1202   17.4089   26.9563 C   0  0  0  0  0  0  0  0  0  0  0  0
  -15.1330   17.6110   28.0345 H   0  0  0  0  0  0  0  0  0  0  0  0
  -14.0880   17.2109   26.6585 H   0  0  0  0  0  0  0  0  0  0  0  0
  -15.7444   18.5778   26.2098 C   0  0  0  0  0  0  0  0  0  0  0  0
  -15.4673   18.5306   25.1498 H   0  0  0  0  0  0  0  0  0  0  0  0
  -15.4381   19.5507   26.6037 H   0  0  0  0  0  0  0  0  0  0  0  0
  -17.2335   18.3211   26.3714 C   0  0  0  0  0  0  0  0  0  0  0  0
  -17.8252   18.7659   25.5664 H   0  0  0  0  0  0  0  0  0  0  0  0
  -17.6033   18.6962   27.3329 H   0  0  0  0  0  0  0  0  0  0  0  0
  -18.6669   14.7975   26.1610 C   0  0  0  0  0  0  0  0  0  0  0  0
  -18.0164   13.9803   25.2846 C   0  0  0  0  0  0  0  0  0  0  0  0
  -17.3471   14.1973   24.4926 H   0  0  0  0  0  0  0  0  0  0  0  0
  -18.3894   12.7290   25.5975 N   0  0  0  0  0  0  0  0  0  0  0  0
  -18.0653   11.8720   25.1093 H   0  0  0  0  0  0  0  0  0  0  0  0
  -19.2643   12.7002   26.6408 N   0  0  0  0  0  0  0  0  0  0  0  0
  -19.4321   13.9502   26.9664 C   0  0  0  0  0  0  0  0  0  0  0  0
  -20.0845   14.2623   27.7417 H   0  0  0  0  0  0  0  0  0  0  0  0
  1  2  2  0
  2  3  1  0
  2 16  1  0
  3  4  1  0
  3 13  1  0
  4  5  1  0
  4  6  1  0
  4  7  1  0
  7  8  1  0
  7  9  1  0
  7 10  1  0
 10 11  1  0
 10 12  1  0
 10 13  1  0
 13 14  1  0
 13 15  1  0
 16 17  2  0
 16 22  1  0
 17 18  1  0
 17 19  1  0
 19 20  1  0
 19 21  1  0
 21 22  2  0
 22 23  1  0
M  END
$$$$
