F179_46
     RDKit          3D

 29 30  0  0  0  0  0  0  0  0999 V2000
  -19.2038   13.2663   26.3047 C   0  0  0  0  0  0  0  0  0  0  0  0
  -19.8397   13.5000   25.4450 H   0  0  0  0  0  0  0  0  0  0  0  0
  -18.1701   13.1653   25.9553 H   0  0  0  0  0  0  0  0  0  0  0  0
  -19.2221   14.1215   26.9892 H   0  0  0  0  0  0  0  0  0  0  0  0
  -19.6580   11.9911   27.0078 C   0  0  0  0  0  0  0  0  0  0  0  0
  -18.7736   11.7323   28.0987 O   0  0  0  0  0  0  0  0  0  0  0  0
  -18.8600   12.4731   28.7227 H   0  0  0  0  0  0  0  0  0  0  0  0
  -21.0744   12.0856   27.4764 C   0  0  0  0  0  0  0  0  0  0  0  0
  -22.0395   11.0866   27.4224 C   0  0  0  0  0  0  0  0  0  0  0  0
  -21.8922   10.1132   27.0252 H   0  0  0  0  0  0  0  0  0  0  0  0
  -23.1727   11.4936   27.9277 N   0  0  0  0  0  0  0  0  0  0  0  0
  -22.9458   12.7811   28.3134 N   0  0  0  0  0  0  0  0  0  0  0  0
  -23.9880   13.5714   28.9217 C   0  0  0  0  0  0  0  0  0  0  0  0
  -23.6088   14.5997   29.0074 H   0  0  0  0  0  0  0  0  0  0  0  0
  -25.3037   13.5935   28.1454 C   0  0  0  0  0  0  0  0  0  0  0  0
  -25.2501   14.2268   27.2538 H   0  0  0  0  0  0  0  0  0  0  0  0
  -25.5937   12.5884   27.8169 H   0  0  0  0  0  0  0  0  0  0  0  0
  -26.3215   14.1123   29.1569 C   0  0  0  0  0  0  0  0  0  0  0  0
  -26.4494   15.1957   29.0484 H   0  0  0  0  0  0  0  0  0  0  0  0
  -27.3028   13.6509   29.0045 H   0  0  0  0  0  0  0  0  0  0  0  0
  -25.7524   13.7951   30.5401 C   0  0  0  0  0  0  0  0  0  0  0  0
  -26.4361   13.1743   31.1292 H   0  0  0  0  0  0  0  0  0  0  0  0
  -25.5934   14.7263   31.0973 H   0  0  0  0  0  0  0  0  0  0  0  0
  -24.4228   13.0871   30.3033 C   0  0  0  0  0  0  0  0  0  0  0  0
  -24.5759   12.0005   30.3169 H   0  0  0  0  0  0  0  0  0  0  0  0
  -23.6865   13.3235   31.0790 H   0  0  0  0  0  0  0  0  0  0  0  0
  -21.6742   13.1559   28.0475 C   0  0  0  0  0  0  0  0  0  0  0  0
  -21.3098   14.1217   28.2833 H   0  0  0  0  0  0  0  0  0  0  0  0
  -19.5664   11.1449   26.3151 H   0  0  0  0  0  0  0  0  0  0  0  0
  1  2  1  0
  1  3  1  0
  1  4  1  0
  1  5  1  0
  5  6  1  0
  5  8  1  0
  5 29  1  0
  6  7  1  0
  8  9  1  0
  8 27  2  0
  9 10  1  0
  9 11  2  0
 11 12  1  0
 12 13  1  0
 12 27  1  0
 13 14  1  0
 13 15  1  0
 13 24  1  0
 15 16  1  0
 15 17  1  0
 15 18  1  0
 18 19  1  0
 18 20  1  0
 18 21  1  0
 21 22  1  0
 21 23  1  0
 21 24  1  0
 24 25  1  0
 24 26  1  0
 27 28  1  0
M  END
$$$$
