F503_36
     RDKit          3D

 29 30  0  0  0  0  0  0  0  0999 V2000
  -20.0363   14.6591   27.8708 F   0  0  0  0  0  0  0  0  0  0  0  0
  -20.6576   13.4842   27.6872 C   0  0  0  0  0  0  0  0  0  0  0  0
  -20.0074   12.4636   26.9896 C   0  0  0  0  0  0  0  0  0  0  0  0
  -18.6122   12.6479   26.4481 C   0  0  0  0  0  0  0  0  0  0  0  0
  -18.2420   11.7041   26.0276 H   0  0  0  0  0  0  0  0  0  0  0  0
  -17.9459   12.8611   27.2950 H   0  0  0  0  0  0  0  0  0  0  0  0
  -18.4977   13.7524   25.4027 C   0  0  0  0  0  0  0  0  0  0  0  0
  -18.4011   15.1481   25.9317 C   0  0  0  0  0  0  0  0  0  0  0  0
  -19.2215   16.0127   25.6989 O   0  0  0  0  0  0  0  0  0  0  0  0
  -17.3182   15.4386   26.6939 N   0  0  0  0  0  0  0  0  0  0  0  0
  -16.6294   14.7114   26.8264 H   0  0  0  0  0  0  0  0  0  0  0  0
  -17.1027   16.7288   27.2984 C   0  0  0  0  0  0  0  0  0  0  0  0
  -16.9608   17.4729   26.5104 H   0  0  0  0  0  0  0  0  0  0  0  0
  -17.9726   16.9984   27.9024 H   0  0  0  0  0  0  0  0  0  0  0  0
  -16.2113   16.6761   27.9286 H   0  0  0  0  0  0  0  0  0  0  0  0
  -19.0994   13.5820   24.0046 C   0  0  0  0  0  0  0  0  0  0  0  0
  -19.4556   14.4683   23.4874 H   0  0  0  0  0  0  0  0  0  0  0  0
  -19.6624   12.6906   23.7565 H   0  0  0  0  0  0  0  0  0  0  0  0
  -17.6267   13.4324   24.1858 C   0  0  0  0  0  0  0  0  0  0  0  0
  -16.9836   14.2126   23.7931 H   0  0  0  0  0  0  0  0  0  0  0  0
  -17.2068   12.4378   24.0875 H   0  0  0  0  0  0  0  0  0  0  0  0
  -20.6890   11.2598   26.8074 C   0  0  0  0  0  0  0  0  0  0  0  0
  -20.2311   10.4627   26.2801 H   0  0  0  0  0  0  0  0  0  0  0  0
  -21.9791   11.0954   27.3131 C   0  0  0  0  0  0  0  0  0  0  0  0
  -22.4881   10.1749   27.1683 H   0  0  0  0  0  0  0  0  0  0  0  0
  -22.6059   12.1292   28.0078 C   0  0  0  0  0  0  0  0  0  0  0  0
  -23.5868   11.9956   28.3889 H   0  0  0  0  0  0  0  0  0  0  0  0
  -21.9413   13.3363   28.1977 C   0  0  0  0  0  0  0  0  0  0  0  0
  -22.4007   14.1336   28.7217 H   0  0  0  0  0  0  0  0  0  0  0  0
  1  2  1  0
  2  3  1  0
  2 28  2  0
  3  4  1  0
  3 22  2  0
  4  5  1  0
  4  6  1  0
  4  7  1  0
  7  8  1  0
  7 16  1  0
  7 19  1  0
  8  9  2  0
  8 10  1  0
 10 11  1  0
 10 12  1  0
 12 13  1  0
 12 14  1  0
 12 15  1  0
 16 17  1  0
 16 18  1  0
 16 19  1  0
 19 20  1  0
 19 21  1  0
 22 23  1  0
 22 24  1  0
 24 25  1  0
 24 26  2  0
 26 27  1  0
 26 28  1  0
 28 29  1  0
M  END
$$$$
