F126_93
     RDKit          3D

 23 23  0  0  0  0  0  0  0  0999 V2000
  -17.8644   13.9886   25.4426 Cl  0  0  0  0  0  0  0  0  0  0  0  0
  -19.1973   13.5588   26.4443 C   0  0  0  0  0  0  0  0  0  0  0  0
  -19.6935   12.2501   26.5568 C   0  0  0  0  0  0  0  0  0  0  0  0
  -19.1626   11.0648   25.8513 C   0  0  0  0  0  0  0  0  0  0  0  0
  -18.0153   10.8327   25.5005 O   0  0  0  0  0  0  0  0  0  0  0  0
  -20.0344   10.0770   25.5277 N   0  0  0  0  0  0  0  0  0  0  0  0
  -19.6756    9.2523   25.0314 H   0  0  0  0  0  0  0  0  0  0  0  0
  -21.0281   10.1746   25.7722 H   0  0  0  0  0  0  0  0  0  0  0  0
  -20.7498   12.0312   27.3799 N   0  0  0  0  0  0  0  0  0  0  0  0
  -21.2981   13.0280   28.0574 C   0  0  0  0  0  0  0  0  0  0  0  0
  -22.4702   12.7307   28.9580 C   0  0  0  0  0  0  0  0  0  0  0  0
  -22.0846   12.4991   29.9590 H   0  0  0  0  0  0  0  0  0  0  0  0
  -23.3870   13.9464   29.0802 C   0  0  0  0  0  0  0  0  0  0  0  0
  -23.8300   14.2200   28.1152 H   0  0  0  0  0  0  0  0  0  0  0  0
  -22.8349   14.8181   29.4499 H   0  0  0  0  0  0  0  0  0  0  0  0
  -24.2054   13.7455   29.7797 H   0  0  0  0  0  0  0  0  0  0  0  0
  -23.2417   11.5078   28.4618 C   0  0  0  0  0  0  0  0  0  0  0  0
  -23.6792   11.6785   27.4718 H   0  0  0  0  0  0  0  0  0  0  0  0
  -24.0570   11.2592   29.1501 H   0  0  0  0  0  0  0  0  0  0  0  0
  -22.5855   10.6339   28.3883 H   0  0  0  0  0  0  0  0  0  0  0  0
  -20.8428   14.2809   27.9646 N   0  0  0  0  0  0  0  0  0  0  0  0
  -19.8173   14.5605   27.1818 C   0  0  0  0  0  0  0  0  0  0  0  0
  -19.4713   15.5618   27.1224 H   0  0  0  0  0  0  0  0  0  0  0  0
  1  2  1  0
  2  3  1  0
  2 22  2  0
  3  4  1  0
  3  9  2  0
  4  5  2  0
  4  6  1  0
  6  7  1  0
  6  8  1  0
  9 10  1  0
 10 11  1  0
 10 21  2  0
 11 12  1  0
 11 13  1  0
 11 17  1  0
 13 14  1  0
 13 15  1  0
 13 16  1  0
 17 18  1  0
 17 19  1  0
 17 20  1  0
 21 22  1  0
 22 23  1  0
M  END
$$$$
