F710_19
     RDKit          3D

 30 31  0  0  0  0  0  0  0  0999 V2000
  -17.6682   21.1690   25.8189 F   0  0  0  0  0  0  0  0  0  0  0  0
  -17.7197   19.8293   25.8393 C   0  0  0  0  0  0  0  0  0  0  0  0
  -18.9605   19.2059   25.8965 C   0  0  0  0  0  0  0  0  0  0  0  0
  -19.8465   19.7847   25.9268 H   0  0  0  0  0  0  0  0  0  0  0  0
  -19.0133   17.8159   25.9188 C   0  0  0  0  0  0  0  0  0  0  0  0
  -19.9438   17.3170   25.9818 H   0  0  0  0  0  0  0  0  0  0  0  0
  -17.8270   17.0702   25.8788 C   0  0  0  0  0  0  0  0  0  0  0  0
  -17.8786   15.6825   25.9028 N   0  0  0  0  0  0  0  0  0  0  0  0
  -17.5369   14.9089   27.1042 C   0  0  0  0  0  0  0  0  0  0  0  0
  -16.6126   14.3495   26.9158 H   0  0  0  0  0  0  0  0  0  0  0  0
  -17.3682   15.5455   27.9798 H   0  0  0  0  0  0  0  0  0  0  0  0
  -18.6826   13.9407   27.4383 C   0  0  0  0  0  0  0  0  0  0  0  0
  -19.5725   14.5071   27.7386 H   0  0  0  0  0  0  0  0  0  0  0  0
  -18.3974   13.3124   28.2883 H   0  0  0  0  0  0  0  0  0  0  0  0
  -19.0760   13.1295   26.2789 N   0  0  0  0  0  0  0  0  0  0  0  0
  -19.0934   11.7668   26.4003 C   0  0  0  0  0  0  0  0  0  0  0  0
  -18.6357   11.1624   27.3554 O   0  0  0  0  0  0  0  0  0  0  0  0
  -19.6662   11.0908   25.4013 N   0  0  0  0  0  0  0  0  0  0  0  0
  -20.6587   11.3059   25.2588 H   0  0  0  0  0  0  0  0  0  0  0  0
  -19.0791   10.9143   24.5832 H   0  0  0  0  0  0  0  0  0  0  0  0
  -19.3954   13.9176   25.0750 C   0  0  0  0  0  0  0  0  0  0  0  0
  -19.5796   13.2789   24.2086 H   0  0  0  0  0  0  0  0  0  0  0  0
  -20.3150   14.4728   25.2918 H   0  0  0  0  0  0  0  0  0  0  0  0
  -18.2538   14.8872   24.7261 C   0  0  0  0  0  0  0  0  0  0  0  0
  -18.5389   15.4996   23.8640 H   0  0  0  0  0  0  0  0  0  0  0  0
  -17.3742   14.3097   24.4141 H   0  0  0  0  0  0  0  0  0  0  0  0
  -16.5828   17.7200   25.8256 C   0  0  0  0  0  0  0  0  0  0  0  0
  -15.6847   17.1646   25.7881 H   0  0  0  0  0  0  0  0  0  0  0  0
  -16.5310   19.1104   25.8041 C   0  0  0  0  0  0  0  0  0  0  0  0
  -15.6045   19.6206   25.7598 H   0  0  0  0  0  0  0  0  0  0  0  0
  1  2  1  0
  2  3  1  0
  2 29  2  0
  3  4  1  0
  3  5  2  0
  5  6  1  0
  5  7  1  0
  7  8  1  0
  7 27  2  0
  8  9  1  0
  8 24  1  0
  9 10  1  0
  9 11  1  0
  9 12  1  0
 12 13  1  0
 12 14  1  0
 12 15  1  0
 15 16  1  0
 15 21  1  0
 16 17  2  0
 16 18  1  0
 18 19  1  0
 18 20  1  0
 21 22  1  0
 21 23  1  0
 21 24  1  0
 24 25  1  0
 24 26  1  0
 27 28  1  0
 27 29  1  0
 29 30  1  0
M  END
$$$$
