F368_56
     RDKit          3D

 29 30  0  0  0  0  0  0  0  0999 V2000
  -20.4759   14.4687   27.7887 O   0  0  0  0  0  0  0  0  0  0  0  0
  -20.2795   13.3422   27.3729 C   0  0  0  0  0  0  0  0  0  0  0  0
  -21.0908   12.3038   27.7412 N   0  0  0  0  0  0  0  0  0  0  0  0
  -20.8375   11.3898   27.3483 H   0  0  0  0  0  0  0  0  0  0  0  0
  -22.1992   12.3432   28.5772 C   0  0  0  0  0  0  0  0  0  0  0  0
  -22.7704   13.4296   29.1370 C   0  0  0  0  0  0  0  0  0  0  0  0
  -22.5356   14.4588   29.0828 H   0  0  0  0  0  0  0  0  0  0  0  0
  -23.8098   12.9425   29.8595 N   0  0  0  0  0  0  0  0  0  0  0  0
  -24.7528   13.6881   30.6645 C   0  0  0  0  0  0  0  0  0  0  0  0
  -24.8882   13.1437   31.6061 H   0  0  0  0  0  0  0  0  0  0  0  0
  -24.2987   14.6567   30.8999 H   0  0  0  0  0  0  0  0  0  0  0  0
  -26.0819   13.8840   29.9579 C   0  0  0  0  0  0  0  0  0  0  0  0
  -26.7677   14.4565   30.5897 H   0  0  0  0  0  0  0  0  0  0  0  0
  -25.9502   14.4262   29.0160 H   0  0  0  0  0  0  0  0  0  0  0  0
  -26.5522   12.9224   29.7270 H   0  0  0  0  0  0  0  0  0  0  0  0
  -23.9107   11.5834   29.7660 N   0  0  0  0  0  0  0  0  0  0  0  0
  -22.9244   11.2282   28.9841 C   0  0  0  0  0  0  0  0  0  0  0  0
  -22.7264   10.2235   28.7134 H   0  0  0  0  0  0  0  0  0  0  0  0
  -19.1238   12.9378   26.4101 C   0  0  0  0  0  0  0  0  0  0  0  0
  -18.3635   12.3163   26.9074 H   0  0  0  0  0  0  0  0  0  0  0  0
  -19.5250   12.3213   25.0415 C   0  0  0  0  0  0  0  0  0  0  0  0
  -20.5022   12.6447   24.6670 H   0  0  0  0  0  0  0  0  0  0  0  0
  -19.4648   11.2310   24.9789 H   0  0  0  0  0  0  0  0  0  0  0  0
  -18.3398   13.0845   24.4211 C   0  0  0  0  0  0  0  0  0  0  0  0
  -18.5109   13.5018   23.4259 H   0  0  0  0  0  0  0  0  0  0  0  0
  -17.4038   12.5145   24.4154 H   0  0  0  0  0  0  0  0  0  0  0  0
  -18.4521   14.0769   25.5939 C   0  0  0  0  0  0  0  0  0  0  0  0
  -19.1062   14.9322   25.3861 H   0  0  0  0  0  0  0  0  0  0  0  0
  -17.5022   14.4455   25.9893 H   0  0  0  0  0  0  0  0  0  0  0  0
  1  2  2  0
  2  3  1  0
  2 19  1  0
  3  4  1  0
  3  5  1  0
  5  6  2  0
  5 17  1  0
  6  7  1  0
  6  8  1  0
  8  9  1  0
  8 16  1  0
  9 10  1  0
  9 11  1  0
  9 12  1  0
 12 13  1  0
 12 14  1  0
 12 15  1  0
 16 17  2  0
 17 18  1  0
 19 20  1  0
 19 21  1  0
 19 27  1  0
 21 22  1  0
 21 23  1  0
 21 24  1  0
 24 25  1  0
 24 26  1  0
 24 27  1  0
 27 28  1  0
 27 29  1  0
M  END
$$$$
