F13_63
     RDKit          3D

 16 16  0  0  0  0  0  0  0  0999 V2000
  -19.5769   11.1217   25.9678 Br  0  0  0  0  0  0  0  0  0  0  0  0
  -19.3835   12.9192   26.4346 C   0  0  0  0  0  0  0  0  0  0  0  0
  -18.5140   13.8191   25.9301 C   0  0  0  0  0  0  0  0  0  0  0  0
  -17.7702   13.7390   25.1814 H   0  0  0  0  0  0  0  0  0  0  0  0
  -18.7636   14.9764   26.5852 N   0  0  0  0  0  0  0  0  0  0  0  0
  -18.0983   16.2546   26.4276 C   0  0  0  0  0  0  0  0  0  0  0  0
  -18.2512   16.5684   25.3892 H   0  0  0  0  0  0  0  0  0  0  0  0
  -18.6050   16.9682   27.0868 H   0  0  0  0  0  0  0  0  0  0  0  0
  -16.6144   16.1636   26.7467 C   0  0  0  0  0  0  0  0  0  0  0  0
  -16.1199   15.5075   26.0249 H   0  0  0  0  0  0  0  0  0  0  0  0
  -16.4349   15.7788   27.7561 H   0  0  0  0  0  0  0  0  0  0  0  0
  -16.0167   17.4517   26.6343 O   0  0  0  0  0  0  0  0  0  0  0  0
  -15.0698   17.3471   26.8346 H   0  0  0  0  0  0  0  0  0  0  0  0
  -19.7720   14.8405   27.4895 N   0  0  0  0  0  0  0  0  0  0  0  0
  -20.1385   13.5890   27.3910 C   0  0  0  0  0  0  0  0  0  0  0  0
  -20.9133   13.1598   27.9723 H   0  0  0  0  0  0  0  0  0  0  0  0
  1  2  1  0
  2  3  2  0
  2 15  1  0
  3  4  1  0
  3  5  1  0
  5  6  1  0
  5 14  1  0
  6  7  1  0
  6  8  1  0
  6  9  1  0
  9 10  1  0
  9 11  1  0
  9 12  1  0
 12 13  1  0
 14 15  2  0
 15 16  1  0
M  END
$$$$
