F603_87
     RDKit          3D

 24 25  0  0  0  0  0  0  0  0999 V2000
  -19.3566   12.6812   25.1442 S   0  0  0  0  0  0  0  0  0  0  0  0
  -20.5872   12.5662   24.3869 O   0  0  0  0  0  0  0  0  0  0  0  0
  -18.7317   11.5069   25.7306 O   0  0  0  0  0  0  0  0  0  0  0  0
  -19.5877   13.8795   26.4474 C   0  0  0  0  0  0  0  0  0  0  0  0
  -18.7877   13.7375   27.1793 H   0  0  0  0  0  0  0  0  0  0  0  0
  -19.5101   14.8754   26.0027 H   0  0  0  0  0  0  0  0  0  0  0  0
  -20.9161   13.6770   27.0874 C   0  0  0  0  0  0  0  0  0  0  0  0
  -21.9263   12.9672   26.4969 N   0  0  0  0  0  0  0  0  0  0  0  0
  -21.9060   12.5357   25.5620 H   0  0  0  0  0  0  0  0  0  0  0  0
  -22.9733   12.9295   27.3572 C   0  0  0  0  0  0  0  0  0  0  0  0
  -22.5448   13.6333   28.4636 C   0  0  0  0  0  0  0  0  0  0  0  0
  -21.2576   14.0858   28.2642 N   0  0  0  0  0  0  0  0  0  0  0  0
  -23.4114   13.7794   29.5548 C   0  0  0  0  0  0  0  0  0  0  0  0
  -23.0899   14.3196   30.4064 H   0  0  0  0  0  0  0  0  0  0  0  0
  -24.6786   13.2135   29.4948 C   0  0  0  0  0  0  0  0  0  0  0  0
  -25.3425   13.3185   30.3137 H   0  0  0  0  0  0  0  0  0  0  0  0
  -25.0942   12.4957   28.3491 C   0  0  0  0  0  0  0  0  0  0  0  0
  -26.0661   12.0708   28.3243 H   0  0  0  0  0  0  0  0  0  0  0  0
  -24.2441   12.3458   27.2651 C   0  0  0  0  0  0  0  0  0  0  0  0
  -24.5428   11.8116   26.4002 H   0  0  0  0  0  0  0  0  0  0  0  0
  -18.1548   13.4641   24.0988 C   0  0  0  0  0  0  0  0  0  0  0  0
  -18.5691   14.4033   23.7285 H   0  0  0  0  0  0  0  0  0  0  0  0
  -17.9407   12.7938   23.2639 H   0  0  0  0  0  0  0  0  0  0  0  0
  -17.2456   13.6426   24.6770 H   0  0  0  0  0  0  0  0  0  0  0  0
  1  2  2  0
  1  3  2  0
  1  4  1  0
  1 21  1  0
  4  5  1  0
  4  6  1  0
  4  7  1  0
  7  8  1  0
  7 12  2  0
  8  9  1  0
  8 10  1  0
 10 11  1  0
 10 19  2  0
 11 12  1  0
 11 13  2  0
 13 14  1  0
 13 15  1  0
 15 16  1  0
 15 17  2  0
 17 18  1  0
 17 19  1  0
 19 20  1  0
 21 22  1  0
 21 23  1  0
 21 24  1  0
M  END
$$$$
