F389_49
     RDKit          3D

 18 18  0  0  0  0  0  0  0  0999 V2000
  -21.0389   11.3089   26.8968 O   0  0  0  0  0  0  0  0  0  0  0  0
  -20.7565   12.4668   26.6240 C   0  0  0  0  0  0  0  0  0  0  0  0
  -21.2182   13.5604   27.3006 O   0  0  0  0  0  0  0  0  0  0  0  0
  -22.1678   13.3071   28.3477 C   0  0  0  0  0  0  0  0  0  0  0  0
  -22.2787   14.2393   28.9116 H   0  0  0  0  0  0  0  0  0  0  0  0
  -21.7960   12.5494   29.0465 H   0  0  0  0  0  0  0  0  0  0  0  0
  -23.5044   12.9073   27.7535 C   0  0  0  0  0  0  0  0  0  0  0  0
  -23.4183   11.9764   27.1841 H   0  0  0  0  0  0  0  0  0  0  0  0
  -23.8608   13.6733   27.0572 H   0  0  0  0  0  0  0  0  0  0  0  0
  -24.2525   12.7691   28.5392 H   0  0  0  0  0  0  0  0  0  0  0  0
  -19.8808   12.8217   25.5221 C   0  0  0  0  0  0  0  0  0  0  0  0
  -19.5573   12.0565   24.4405 C   0  0  0  0  0  0  0  0  0  0  0  0
  -19.8488   11.0776   24.1585 H   0  0  0  0  0  0  0  0  0  0  0  0
  -18.7227   12.8027   23.6982 N   0  0  0  0  0  0  0  0  0  0  0  0
  -18.2917   12.5045   22.8010 H   0  0  0  0  0  0  0  0  0  0  0  0
  -18.4929   14.0221   24.2571 N   0  0  0  0  0  0  0  0  0  0  0  0
  -19.1939   14.0254   25.3559 C   0  0  0  0  0  0  0  0  0  0  0  0
  -19.2267   14.8475   26.0260 H   0  0  0  0  0  0  0  0  0  0  0  0
  1  2  2  0
  2  3  1  0
  2 11  1  0
  3  4  1  0
  4  5  1  0
  4  6  1  0
  4  7  1  0
  7  8  1  0
  7  9  1  0
  7 10  1  0
 11 12  2  0
 11 17  1  0
 12 13  1  0
 12 14  1  0
 14 15  1  0
 14 16  1  0
 16 17  2  0
 17 18  1  0
M  END
$$$$
