F687_75
     RDKit          3D

 24 25  0  0  0  0  0  0  0  0999 V2000
  -22.1394   10.9707   31.8423 F   0  0  0  0  0  0  0  0  0  0  0  0
  -23.2387   11.5567   31.3433 C   0  0  0  0  0  0  0  0  0  0  0  0
  -23.2124   12.1767   30.0779 C   0  0  0  0  0  0  0  0  0  0  0  0
  -22.0892   12.2290   29.2723 N   0  0  0  0  0  0  0  0  0  0  0  0
  -21.1986   11.8653   29.5980 H   0  0  0  0  0  0  0  0  0  0  0  0
  -22.0372   12.7846   27.9277 C   0  0  0  0  0  0  0  0  0  0  0  0
  -22.8119   12.3116   27.3109 H   0  0  0  0  0  0  0  0  0  0  0  0
  -22.2482   13.8598   27.9725 H   0  0  0  0  0  0  0  0  0  0  0  0
  -20.7234   12.6098   27.2165 C   0  0  0  0  0  0  0  0  0  0  0  0
  -20.3467   11.4423   26.7533 N   0  0  0  0  0  0  0  0  0  0  0  0
  -19.1314   11.6644   26.1857 N   0  0  0  0  0  0  0  0  0  0  0  0
  -18.5774   10.9158   25.7305 H   0  0  0  0  0  0  0  0  0  0  0  0
  -18.7538   12.9556   26.2890 C   0  0  0  0  0  0  0  0  0  0  0  0
  -17.8367   13.3169   25.9006 H   0  0  0  0  0  0  0  0  0  0  0  0
  -19.7600   13.5758   26.9423 C   0  0  0  0  0  0  0  0  0  0  0  0
  -19.8119   14.6050   27.1940 H   0  0  0  0  0  0  0  0  0  0  0  0
  -24.3811   12.7815   29.6089 C   0  0  0  0  0  0  0  0  0  0  0  0
  -24.3822   13.2665   28.6677 H   0  0  0  0  0  0  0  0  0  0  0  0
  -25.5432   12.7490   30.3800 C   0  0  0  0  0  0  0  0  0  0  0  0
  -26.4269   13.2069   30.0160 H   0  0  0  0  0  0  0  0  0  0  0  0
  -25.5545   12.1185   31.6259 C   0  0  0  0  0  0  0  0  0  0  0  0
  -26.4440   12.0991   32.2021 H   0  0  0  0  0  0  0  0  0  0  0  0
  -24.3932   11.5197   32.1112 C   0  0  0  0  0  0  0  0  0  0  0  0
  -24.3864   11.0448   33.0579 H   0  0  0  0  0  0  0  0  0  0  0  0
  1  2  1  0
  2  3  1  0
  2 23  2  0
  3  4  1  0
  3 17  2  0
  4  5  1  0
  4  6  1  0
  6  7  1  0
  6  8  1  0
  6  9  1  0
  9 10  2  0
  9 15  1  0
 10 11  1  0
 11 12  1  0
 11 13  1  0
 13 14  1  0
 13 15  2  0
 15 16  1  0
 17 18  1  0
 17 19  1  0
 19 20  1  0
 19 21  2  0
 21 22  1  0
 21 23  1  0
 23 24  1  0
M  END
$$$$
