F393_85
     RDKit          3D

 24 24  0  0  0  0  0  0  0  0999 V2000
  -21.4034   11.9978   29.5544 O   0  0  0  0  0  0  0  0  0  0  0  0
  -21.5581   12.3321   28.3865 C   0  0  0  0  0  0  0  0  0  0  0  0
  -22.7702   12.4745   27.7849 O   0  0  0  0  0  0  0  0  0  0  0  0
  -23.8956   12.3630   28.6654 C   0  0  0  0  0  0  0  0  0  0  0  0
  -23.8872   11.3824   29.1530 H   0  0  0  0  0  0  0  0  0  0  0  0
  -23.8506   13.1536   29.4224 H   0  0  0  0  0  0  0  0  0  0  0  0
  -25.1582   12.5142   27.8398 C   0  0  0  0  0  0  0  0  0  0  0  0
  -25.2052   11.7446   27.0616 H   0  0  0  0  0  0  0  0  0  0  0  0
  -25.1706   13.4838   27.3305 H   0  0  0  0  0  0  0  0  0  0  0  0
  -26.0488   12.4345   28.4697 H   0  0  0  0  0  0  0  0  0  0  0  0
  -20.5047   12.6035   27.5521 N   0  0  0  0  0  0  0  0  0  0  0  0
  -19.1239   12.5214   28.0267 C   0  0  0  0  0  0  0  0  0  0  0  0
  -18.7505   13.5511   28.0716 H   0  0  0  0  0  0  0  0  0  0  0  0
  -19.0715   12.0964   29.0342 H   0  0  0  0  0  0  0  0  0  0  0  0
  -18.2717   11.7012   27.0581 C   0  0  0  0  0  0  0  0  0  0  0  0
  -18.5790   10.6483   27.0536 H   0  0  0  0  0  0  0  0  0  0  0  0
  -17.2190   11.7433   27.3560 H   0  0  0  0  0  0  0  0  0  0  0  0
  -18.3700   12.2217   25.7244 O   0  0  0  0  0  0  0  0  0  0  0  0
  -19.7272   12.1756   25.2584 C   0  0  0  0  0  0  0  0  0  0  0  0
  -19.7426   12.5654   24.2357 H   0  0  0  0  0  0  0  0  0  0  0  0
  -20.0565   11.1297   25.2251 H   0  0  0  0  0  0  0  0  0  0  0  0
  -20.6418   13.0138   26.1528 C   0  0  0  0  0  0  0  0  0  0  0  0
  -21.6761   12.9418   25.8053 H   0  0  0  0  0  0  0  0  0  0  0  0
  -20.3420   14.0671   26.1099 H   0  0  0  0  0  0  0  0  0  0  0  0
  1  2  2  0
  2  3  1  0
  2 11  1  0
  3  4  1  0
  4  5  1  0
  4  6  1  0
  4  7  1  0
  7  8  1  0
  7  9  1  0
  7 10  1  0
 11 12  1  0
 11 22  1  0
 12 13  1  0
 12 14  1  0
 12 15  1  0
 15 16  1  0
 15 17  1  0
 15 18  1  0
 18 19  1  0
 19 20  1  0
 19 21  1  0
 19 22  1  0
 22 23  1  0
 22 24  1  0
M  END
$$$$
