F529_21
     RDKit          3D

 23 23  0  0  0  0  0  0  0  0999 V2000
  -23.4745   11.5917   27.6615 S   0  0  0  0  0  0  0  0  0  0  0  0
  -23.1143   10.3554   28.3369 O   0  0  0  0  0  0  0  0  0  0  0  0
  -24.0538   11.5671   26.3319 O   0  0  0  0  0  0  0  0  0  0  0  0
  -22.0295   12.6193   27.6181 C   0  0  0  0  0  0  0  0  0  0  0  0
  -21.6448   12.7365   28.6333 H   0  0  0  0  0  0  0  0  0  0  0  0
  -22.2895   13.5883   27.1875 H   0  0  0  0  0  0  0  0  0  0  0  0
  -21.2821   12.1267   26.9934 H   0  0  0  0  0  0  0  0  0  0  0  0
  -24.5808   12.4924   28.7107 C   0  0  0  0  0  0  0  0  0  0  0  0
  -24.6728   12.2653   30.0949 C   0  0  0  0  0  0  0  0  0  0  0  0
  -23.8808   11.2841   30.6860 N   0  0  0  0  0  0  0  0  0  0  0  0
  -23.3409   10.6768   30.0527 H   0  0  0  0  0  0  0  0  0  0  0  0
  -23.7781   11.0286   32.1024 C   0  0  0  0  0  0  0  0  0  0  0  0
  -23.4340   11.9181   32.6407 H   0  0  0  0  0  0  0  0  0  0  0  0
  -23.0491   10.2311   32.2774 H   0  0  0  0  0  0  0  0  0  0  0  0
  -24.7364   10.6988   32.5153 H   0  0  0  0  0  0  0  0  0  0  0  0
  -25.5362   13.0415   30.8794 C   0  0  0  0  0  0  0  0  0  0  0  0
  -25.5898   12.8966   31.9255 H   0  0  0  0  0  0  0  0  0  0  0  0
  -26.3320   14.0122   30.2858 C   0  0  0  0  0  0  0  0  0  0  0  0
  -26.9911   14.5929   30.8790 H   0  0  0  0  0  0  0  0  0  0  0  0
  -26.2694   14.2230   28.9123 C   0  0  0  0  0  0  0  0  0  0  0  0
  -26.8842   14.9600   28.4598 H   0  0  0  0  0  0  0  0  0  0  0  0
  -25.3966   13.4689   28.1336 C   0  0  0  0  0  0  0  0  0  0  0  0
  -25.3501   13.6384   27.0876 H   0  0  0  0  0  0  0  0  0  0  0  0
  1  2  2  0
  1  3  2  0
  1  4  1  0
  1  8  1  0
  4  5  1  0
  4  6  1  0
  4  7  1  0
  8  9  1  0
  8 22  2  0
  9 10  1  0
  9 16  2  0
 10 11  1  0
 10 12  1  0
 12 13  1  0
 12 14  1  0
 12 15  1  0
 16 17  1  0
 16 18  1  0
 18 19  1  0
 18 20  2  0
 20 21  1  0
 20 22  1  0
 22 23  1  0
M  END
$$$$
