F710_71
     RDKit          3D

 30 31  0  0  0  0  0  0  0  0999 V2000
  -25.4463   12.0178   29.8333 F   0  0  0  0  0  0  0  0  0  0  0  0
  -24.2804   12.1726   29.1894 C   0  0  0  0  0  0  0  0  0  0  0  0
  -24.2951   12.6052   27.8687 C   0  0  0  0  0  0  0  0  0  0  0  0
  -25.2148   12.8042   27.3836 H   0  0  0  0  0  0  0  0  0  0  0  0
  -23.0852   12.7645   27.2007 C   0  0  0  0  0  0  0  0  0  0  0  0
  -23.0693   13.0737   26.1894 H   0  0  0  0  0  0  0  0  0  0  0  0
  -21.8797   12.4941   27.8631 C   0  0  0  0  0  0  0  0  0  0  0  0
  -20.6714   12.6512   27.1966 N   0  0  0  0  0  0  0  0  0  0  0  0
  -20.0434   11.5533   26.4491 C   0  0  0  0  0  0  0  0  0  0  0  0
  -19.1217   11.2548   26.9632 H   0  0  0  0  0  0  0  0  0  0  0  0
  -20.6874   10.6696   26.3803 H   0  0  0  0  0  0  0  0  0  0  0  0
  -19.7250   12.0177   25.0193 C   0  0  0  0  0  0  0  0  0  0  0  0
  -20.6573   12.2040   24.4724 H   0  0  0  0  0  0  0  0  0  0  0  0
  -19.1901   11.2254   24.4854 H   0  0  0  0  0  0  0  0  0  0  0  0
  -18.9725   13.2789   25.0028 N   0  0  0  0  0  0  0  0  0  0  0  0
  -17.7886   13.3340   24.3193 C   0  0  0  0  0  0  0  0  0  0  0  0
  -17.2198   12.3567   23.8628 O   0  0  0  0  0  0  0  0  0  0  0  0
  -17.2599   14.5481   24.1481 N   0  0  0  0  0  0  0  0  0  0  0  0
  -16.4184   14.7262   24.7066 H   0  0  0  0  0  0  0  0  0  0  0  0
  -17.3123   14.9320   23.2021 H   0  0  0  0  0  0  0  0  0  0  0  0
  -19.6036   14.3649   25.7740 C   0  0  0  0  0  0  0  0  0  0  0  0
  -18.9660   15.2498   25.8258 H   0  0  0  0  0  0  0  0  0  0  0  0
  -20.5244   14.6377   25.2461 H   0  0  0  0  0  0  0  0  0  0  0  0
  -19.9225   13.9148   27.2096 C   0  0  0  0  0  0  0  0  0  0  0  0
  -20.4410   14.7187   27.7428 H   0  0  0  0  0  0  0  0  0  0  0  0
  -18.9827   13.7451   27.7504 H   0  0  0  0  0  0  0  0  0  0  0  0
  -21.8872   12.0535   29.1969 C   0  0  0  0  0  0  0  0  0  0  0  0
  -20.9823   11.8545   29.7049 H   0  0  0  0  0  0  0  0  0  0  0  0
  -23.0979   11.8937   29.8639 C   0  0  0  0  0  0  0  0  0  0  0  0
  -23.1267   11.5670   30.8704 H   0  0  0  0  0  0  0  0  0  0  0  0
  1  2  1  0
  2  3  1  0
  2 29  2  0
  3  4  1  0
  3  5  2  0
  5  6  1  0
  5  7  1  0
  7  8  1  0
  7 27  2  0
  8  9  1  0
  8 24  1  0
  9 10  1  0
  9 11  1  0
  9 12  1  0
 12 13  1  0
 12 14  1  0
 12 15  1  0
 15 16  1  0
 15 21  1  0
 16 17  2  0
 16 18  1  0
 18 19  1  0
 18 20  1  0
 21 22  1  0
 21 23  1  0
 21 24  1  0
 24 25  1  0
 24 26  1  0
 27 28  1  0
 27 29  1  0
 29 30  1  0
M  END
$$$$
