F14_73
     RDKit          3D

 19 19  0  0  0  0  0  0  0  0999 V2000
  -17.7002   14.7433   26.7644 Br  0  0  0  0  0  0  0  0  0  0  0  0
  -18.9649   13.3777   26.9034 C   0  0  0  0  0  0  0  0  0  0  0  0
  -20.1607   13.4119   27.5295 C   0  0  0  0  0  0  0  0  0  0  0  0
  -20.6492   14.1765   28.0763 H   0  0  0  0  0  0  0  0  0  0  0  0
  -20.7035   12.1870   27.3533 N   0  0  0  0  0  0  0  0  0  0  0  0
  -21.9869   11.7009   27.8193 C   0  0  0  0  0  0  0  0  0  0  0  0
  -22.2028   10.7774   27.2706 H   0  0  0  0  0  0  0  0  0  0  0  0
  -21.8705   11.4565   28.8804 H   0  0  0  0  0  0  0  0  0  0  0  0
  -23.0882   12.7315   27.6229 C   0  0  0  0  0  0  0  0  0  0  0  0
  -23.1875   13.0129   26.5680 H   0  0  0  0  0  0  0  0  0  0  0  0
  -22.8519   13.6269   28.2083 H   0  0  0  0  0  0  0  0  0  0  0  0
  -24.3240   12.1930   28.1013 O   0  0  0  0  0  0  0  0  0  0  0  0
  -25.3796   13.1413   28.0153 C   0  0  0  0  0  0  0  0  0  0  0  0
  -26.2900   12.6795   28.4057 H   0  0  0  0  0  0  0  0  0  0  0  0
  -25.5517   13.4279   26.9739 H   0  0  0  0  0  0  0  0  0  0  0  0
  -25.1496   14.0259   28.6167 H   0  0  0  0  0  0  0  0  0  0  0  0
  -19.8848   11.3674   26.6363 N   0  0  0  0  0  0  0  0  0  0  0  0
  -18.8353   12.1011   26.3669 C   0  0  0  0  0  0  0  0  0  0  0  0
  -18.0032   11.7494   25.8130 H   0  0  0  0  0  0  0  0  0  0  0  0
  1  2  1  0
  2  3  2  0
  2 18  1  0
  3  4  1  0
  3  5  1  0
  5  6  1  0
  5 17  1  0
  6  7  1  0
  6  8  1  0
  6  9  1  0
  9 10  1  0
  9 11  1  0
  9 12  1  0
 12 13  1  0
 13 14  1  0
 13 15  1  0
 13 16  1  0
 17 18  2  0
 18 19  1  0
M  END
$$$$
