F501_35
     RDKit          3D

 23 24  0  0  0  0  0  0  0  0999 V2000
  -17.9401   15.0669   26.6464 C   0  0  0  0  0  0  0  0  0  0  0  0
  -18.8298   15.4013   26.1065 H   0  0  0  0  0  0  0  0  0  0  0  0
  -18.2294   14.5793   27.5803 H   0  0  0  0  0  0  0  0  0  0  0  0
  -17.3724   14.3775   26.0172 H   0  0  0  0  0  0  0  0  0  0  0  0
  -17.1100   16.1964   26.9647 N   0  0  0  0  0  0  0  0  0  0  0  0
  -15.8352   16.0033   27.3339 N   0  0  0  0  0  0  0  0  0  0  0  0
  -15.3065   17.1784   27.5807 N   0  0  0  0  0  0  0  0  0  0  0  0
  -16.2660   18.0994   27.3552 C   0  0  0  0  0  0  0  0  0  0  0  0
  -17.3994   17.4987   26.9589 C   0  0  0  0  0  0  0  0  0  0  0  0
  -18.6760   18.1651   26.5911 C   0  0  0  0  0  0  0  0  0  0  0  0
  -18.7736   18.1322   25.4983 H   0  0  0  0  0  0  0  0  0  0  0  0
  -19.5291   17.6168   27.0023 H   0  0  0  0  0  0  0  0  0  0  0  0
  -18.6537   19.6468   27.0399 C   0  0  0  0  0  0  0  0  0  0  0  0
  -19.1937   19.7918   28.4662 C   0  0  0  0  0  0  0  0  0  0  0  0
  -19.0763   18.8027   29.2233 O   0  0  0  0  0  0  0  0  0  0  0  0
  -19.7530   20.8667   28.7725 O   0  0  0  0  0  0  0  0  0  0  0  0
  -17.2662   20.3048   26.8227 C   0  0  0  0  0  0  0  0  0  0  0  0
  -17.0625   20.3173   25.7430 H   0  0  0  0  0  0  0  0  0  0  0  0
  -17.2736   21.3523   27.1465 H   0  0  0  0  0  0  0  0  0  0  0  0
  -16.1130   19.5600   27.5318 C   0  0  0  0  0  0  0  0  0  0  0  0
  -16.1125   19.7944   28.6023 H   0  0  0  0  0  0  0  0  0  0  0  0
  -15.1531   19.8969   27.1239 H   0  0  0  0  0  0  0  0  0  0  0  0
  -19.3781   20.1908   26.4183 H   0  0  0  0  0  0  0  0  0  0  0  0
  1  2  1  0
  1  3  1  0
  1  4  1  0
  1  5  1  0
  5  6  1  0
  5  9  1  0
  6  7  2  0
  7  8  1  0
  8  9  2  0
  8 20  1  0
  9 10  1  0
 10 11  1  0
 10 12  1  0
 10 13  1  0
 13 14  1  0
 13 17  1  0
 13 23  1  0
 14 15  1  0
 14 16  2  0
 17 18  1  0
 17 19  1  0
 17 20  1  0
 20 21  1  0
 20 22  1  0
M  END
$$$$
