F393_52
     RDKit          3D

 24 24  0  0  0  0  0  0  0  0999 V2000
  -21.0795   11.3404   26.8153 O   0  0  0  0  0  0  0  0  0  0  0  0
  -20.7418   12.4835   27.0966 C   0  0  0  0  0  0  0  0  0  0  0  0
  -21.4780   13.3327   27.8636 O   0  0  0  0  0  0  0  0  0  0  0  0
  -22.6824   12.7692   28.3986 C   0  0  0  0  0  0  0  0  0  0  0  0
  -23.2844   12.3465   27.5872 H   0  0  0  0  0  0  0  0  0  0  0  0
  -22.4325   11.9851   29.1218 H   0  0  0  0  0  0  0  0  0  0  0  0
  -23.4560   13.8758   29.0882 C   0  0  0  0  0  0  0  0  0  0  0  0
  -23.6919   14.6798   28.3825 H   0  0  0  0  0  0  0  0  0  0  0  0
  -22.8575   14.3210   29.8902 H   0  0  0  0  0  0  0  0  0  0  0  0
  -24.3886   13.4941   29.5134 H   0  0  0  0  0  0  0  0  0  0  0  0
  -19.5639   13.0323   26.6597 N   0  0  0  0  0  0  0  0  0  0  0  0
  -18.6310   12.2633   25.8369 C   0  0  0  0  0  0  0  0  0  0  0  0
  -17.7601   12.0551   26.4693 H   0  0  0  0  0  0  0  0  0  0  0  0
  -19.0641   11.3063   25.5288 H   0  0  0  0  0  0  0  0  0  0  0  0
  -18.2029   13.0725   24.6126 C   0  0  0  0  0  0  0  0  0  0  0  0
  -19.0443   13.2282   23.9264 H   0  0  0  0  0  0  0  0  0  0  0  0
  -17.4174   12.5402   24.0666 H   0  0  0  0  0  0  0  0  0  0  0  0
  -17.6764   14.3493   25.0025 O   0  0  0  0  0  0  0  0  0  0  0  0
  -18.6657   15.1145   25.7075 C   0  0  0  0  0  0  0  0  0  0  0  0
  -18.2199   16.0805   25.9647 H   0  0  0  0  0  0  0  0  0  0  0  0
  -19.5137   15.3026   25.0376 H   0  0  0  0  0  0  0  0  0  0  0  0
  -19.1157   14.3900   26.9771 C   0  0  0  0  0  0  0  0  0  0  0  0
  -19.8923   14.9686   27.4847 H   0  0  0  0  0  0  0  0  0  0  0  0
  -18.2691   14.2820   27.6647 H   0  0  0  0  0  0  0  0  0  0  0  0
  1  2  2  0
  2  3  1  0
  2 11  1  0
  3  4  1  0
  4  5  1  0
  4  6  1  0
  4  7  1  0
  7  8  1  0
  7  9  1  0
  7 10  1  0
 11 12  1  0
 11 22  1  0
 12 13  1  0
 12 14  1  0
 12 15  1  0
 15 16  1  0
 15 17  1  0
 15 18  1  0
 18 19  1  0
 19 20  1  0
 19 21  1  0
 19 22  1  0
 22 23  1  0
 22 24  1  0
M  END
$$$$
