F362_97
     RDKit          3D

 30 31  0  0  0  0  0  0  0  0999 V2000
  -21.2957   13.3972   27.8643 N   0  0  0  0  0  0  0  0  0  0  0  0
  -22.4912   14.1423   28.3040 C   0  0  0  0  0  0  0  0  0  0  0  0
  -22.5688   14.1747   29.3942 H   0  0  0  0  0  0  0  0  0  0  0  0
  -22.3999   15.1959   28.0111 H   0  0  0  0  0  0  0  0  0  0  0  0
  -23.7501   13.5781   27.6627 C   0  0  0  0  0  0  0  0  0  0  0  0
  -23.8838   12.5151   27.8807 H   0  0  0  0  0  0  0  0  0  0  0  0
  -23.7159   13.6859   26.5730 H   0  0  0  0  0  0  0  0  0  0  0  0
  -24.6330   14.1146   28.0256 H   0  0  0  0  0  0  0  0  0  0  0  0
  -21.0922   12.1365   28.6057 C   0  0  0  0  0  0  0  0  0  0  0  0
  -20.9700   11.2910   27.9201 H   0  0  0  0  0  0  0  0  0  0  0  0
  -20.1555   12.1781   29.1765 H   0  0  0  0  0  0  0  0  0  0  0  0
  -22.2432   11.8822   29.5691 C   0  0  0  0  0  0  0  0  0  0  0  0
  -23.1975   11.7919   29.0415 H   0  0  0  0  0  0  0  0  0  0  0  0
  -22.3393   12.6985   30.2918 H   0  0  0  0  0  0  0  0  0  0  0  0
  -22.0730   10.9545   30.1241 H   0  0  0  0  0  0  0  0  0  0  0  0
  -20.4068   13.8391   26.8209 C   0  0  0  0  0  0  0  0  0  0  0  0
  -19.7445   15.1195   26.8713 N   0  0  0  0  0  0  0  0  0  0  0  0
  -19.7989   16.0894   27.8105 N   0  0  0  0  0  0  0  0  0  0  0  0
  -19.0063   16.9942   27.3245 C   0  0  0  0  0  0  0  0  0  0  0  0
  -18.8211   17.9108   27.8290 H   0  0  0  0  0  0  0  0  0  0  0  0
  -18.4366   16.7040   26.1501 N   0  0  0  0  0  0  0  0  0  0  0  0
  -18.9011   15.5217   25.8654 C   0  0  0  0  0  0  0  0  0  0  0  0
  -18.6330   14.7446   24.7513 N   0  0  0  0  0  0  0  0  0  0  0  0
  -19.2042   13.5879   24.6625 C   0  0  0  0  0  0  0  0  0  0  0  0
  -18.9289   12.7240   23.4624 C   0  0  0  0  0  0  0  0  0  0  0  0
  -19.4800   11.7821   23.5112 H   0  0  0  0  0  0  0  0  0  0  0  0
  -17.8583   12.5063   23.4126 H   0  0  0  0  0  0  0  0  0  0  0  0
  -19.2254   13.2610   22.5563 H   0  0  0  0  0  0  0  0  0  0  0  0
  -20.1288   13.0708   25.7054 C   0  0  0  0  0  0  0  0  0  0  0  0
  -20.5769   12.1251   25.5818 H   0  0  0  0  0  0  0  0  0  0  0  0
  1  2  1  0
  1  9  1  0
  1 16  1  0
  2  3  1  0
  2  4  1  0
  2  5  1  0
  5  6  1  0
  5  7  1  0
  5  8  1  0
  9 10  1  0
  9 11  1  0
  9 12  1  0
 12 13  1  0
 12 14  1  0
 12 15  1  0
 16 17  1  0
 16 29  2  0
 17 18  1  0
 17 22  1  0
 18 19  2  0
 19 20  1  0
 19 21  1  0
 21 22  2  0
 22 23  1  0
 23 24  2  0
 24 25  1  0
 24 29  1  0
 25 26  1  0
 25 27  1  0
 25 28  1  0
 29 30  1  0
M  END
$$$$
