F558_57
     RDKit          3D

 32 33  0  0  0  0  0  0  0  0999 V2000
  -14.9752   16.6405   27.4772 O   0  0  0  0  0  0  0  0  0  0  0  0
  -15.7249   17.4165   26.9033 C   0  0  0  0  0  0  0  0  0  0  0  0
  -15.4204   18.6956   26.5593 O   0  0  0  0  0  0  0  0  0  0  0  0
  -14.0931   19.0997   26.9031 C   0  0  0  0  0  0  0  0  0  0  0  0
  -13.3573   18.4647   26.4009 H   0  0  0  0  0  0  0  0  0  0  0  0
  -13.9551   19.0698   27.9890 H   0  0  0  0  0  0  0  0  0  0  0  0
  -13.9545   20.1294   26.5635 H   0  0  0  0  0  0  0  0  0  0  0  0
  -17.0068   17.1465   26.5337 N   0  0  0  0  0  0  0  0  0  0  0  0
  -17.4944   17.9518   26.1303 H   0  0  0  0  0  0  0  0  0  0  0  0
  -17.7348   15.9418   26.6425 C   0  0  0  0  0  0  0  0  0  0  0  0
  -17.3344   14.8768   27.4529 C   0  0  0  0  0  0  0  0  0  0  0  0
  -16.4448   14.9354   28.0218 H   0  0  0  0  0  0  0  0  0  0  0  0
  -18.1125   13.7252   27.5017 C   0  0  0  0  0  0  0  0  0  0  0  0
  -17.8070   12.9166   28.1159 H   0  0  0  0  0  0  0  0  0  0  0  0
  -19.2834   13.6245   26.7476 C   0  0  0  0  0  0  0  0  0  0  0  0
  -20.1129   12.3607   26.7894 C   0  0  0  0  0  0  0  0  0  0  0  0
  -19.5153   11.5487   27.2245 H   0  0  0  0  0  0  0  0  0  0  0  0
  -20.3325   12.0242   25.7675 H   0  0  0  0  0  0  0  0  0  0  0  0
  -21.4025   12.5156   27.5552 C   0  0  0  0  0  0  0  0  0  0  0  0
  -21.4560   12.3121   28.9290 C   0  0  0  0  0  0  0  0  0  0  0  0
  -20.5830   12.0597   29.4713 H   0  0  0  0  0  0  0  0  0  0  0  0
  -22.6676   12.4403   29.6006 C   0  0  0  0  0  0  0  0  0  0  0  0
  -22.7172   12.2854   30.6493 H   0  0  0  0  0  0  0  0  0  0  0  0
  -23.7937   12.7555   28.9646 N   0  0  0  0  0  0  0  0  0  0  0  0
  -23.7674   12.9525   27.6478 C   0  0  0  0  0  0  0  0  0  0  0  0
  -24.6789   13.1992   27.1633 H   0  0  0  0  0  0  0  0  0  0  0  0
  -22.5914   12.8400   26.9131 C   0  0  0  0  0  0  0  0  0  0  0  0
  -22.6092   12.9977   25.8654 H   0  0  0  0  0  0  0  0  0  0  0  0
  -19.6663   14.6918   25.9314 C   0  0  0  0  0  0  0  0  0  0  0  0
  -20.5502   14.6269   25.3505 H   0  0  0  0  0  0  0  0  0  0  0  0
  -18.8955   15.8481   25.8752 C   0  0  0  0  0  0  0  0  0  0  0  0
  -19.1932   16.6559   25.2581 H   0  0  0  0  0  0  0  0  0  0  0  0
  1  2  2  0
  2  3  1  0
  2  8  1  0
  3  4  1  0
  4  5  1  0
  4  6  1  0
  4  7  1  0
  8  9  1  0
  8 10  1  0
 10 11  1  0
 10 31  2  0
 11 12  1  0
 11 13  2  0
 13 14  1  0
 13 15  1  0
 15 16  1  0
 15 29  2  0
 16 17  1  0
 16 18  1  0
 16 19  1  0
 19 20  1  0
 19 27  2  0
 20 21  1  0
 20 22  2  0
 22 23  1  0
 22 24  1  0
 24 25  2  0
 25 26  1  0
 25 27  1  0
 27 28  1  0
 29 30  1  0
 29 31  1  0
 31 32  1  0
M  END
$$$$
