F11_52
     RDKit          3D

 16 17  0  0  0  0  0  0  0  0999 V2000
  -18.8691   16.0438   26.9669 Br  0  0  0  0  0  0  0  0  0  0  0  0
  -18.2985   17.7440   26.3537 C   0  0  0  0  0  0  0  0  0  0  0  0
  -16.9671   18.0135   25.9344 C   0  0  0  0  0  0  0  0  0  0  0  0
  -16.6715   19.3276   25.4981 C   0  0  0  0  0  0  0  0  0  0  0  0
  -17.6217   20.3062   25.4757 N   0  0  0  0  0  0  0  0  0  0  0  0
  -18.8366   20.0429   25.8629 C   0  0  0  0  0  0  0  0  0  0  0  0
  -19.5556   20.8250   25.8339 H   0  0  0  0  0  0  0  0  0  0  0  0
  -19.2160   18.7638   26.3126 C   0  0  0  0  0  0  0  0  0  0  0  0
  -20.2178   18.6001   26.6172 H   0  0  0  0  0  0  0  0  0  0  0  0
  -15.4212   19.6769   25.0782 N   0  0  0  0  0  0  0  0  0  0  0  0
  -14.4650   18.7904   25.0729 C   0  0  0  0  0  0  0  0  0  0  0  0
  -13.5016   19.0912   24.7409 H   0  0  0  0  0  0  0  0  0  0  0  0
  -14.6754   17.4593   25.4916 C   0  0  0  0  0  0  0  0  0  0  0  0
  -13.8653   16.7765   25.4677 H   0  0  0  0  0  0  0  0  0  0  0  0
  -15.9153   17.0611   25.9221 C   0  0  0  0  0  0  0  0  0  0  0  0
  -16.0757   16.0624   26.2372 H   0  0  0  0  0  0  0  0  0  0  0  0
  1  2  1  0
  2  3  1  0
  2  8  2  0
  3  4  1  0
  3 15  2  0
  4  5  1  0
  4 10  2  0
  5  6  2  0
  6  7  1  0
  6  8  1  0
  8  9  1  0
 10 11  1  0
 11 12  1  0
 11 13  2  0
 13 14  1  0
 13 15  1  0
 15 16  1  0
M  END
$$$$
