F603_18
     RDKit          3D

 24 25  0  0  0  0  0  0  0  0999 V2000
  -15.7916   17.6215   26.6156 S   0  0  0  0  0  0  0  0  0  0  0  0
  -15.5461   17.7639   25.1942 O   0  0  0  0  0  0  0  0  0  0  0  0
  -15.3124   16.4556   27.3399 O   0  0  0  0  0  0  0  0  0  0  0  0
  -17.5454   17.7641   26.9182 C   0  0  0  0  0  0  0  0  0  0  0  0
  -17.6817   18.0922   27.9524 H   0  0  0  0  0  0  0  0  0  0  0  0
  -17.9416   18.5200   26.2348 H   0  0  0  0  0  0  0  0  0  0  0  0
  -18.2020   16.4457   26.7030 C   0  0  0  0  0  0  0  0  0  0  0  0
  -17.8260   15.5800   25.7121 N   0  0  0  0  0  0  0  0  0  0  0  0
  -17.0990   15.7420   25.0008 H   0  0  0  0  0  0  0  0  0  0  0  0
  -18.5824   14.4603   25.8217 C   0  0  0  0  0  0  0  0  0  0  0  0
  -19.4057   14.6966   26.9030 C   0  0  0  0  0  0  0  0  0  0  0  0
  -19.1433   15.9431   27.4309 N   0  0  0  0  0  0  0  0  0  0  0  0
  -20.3250   13.7113   27.2867 C   0  0  0  0  0  0  0  0  0  0  0  0
  -20.9610   13.8865   28.1144 H   0  0  0  0  0  0  0  0  0  0  0  0
  -20.3847   12.5235   26.5689 C   0  0  0  0  0  0  0  0  0  0  0  0
  -21.0766   11.7719   26.8495 H   0  0  0  0  0  0  0  0  0  0  0  0
  -19.5290   12.3048   25.4641 C   0  0  0  0  0  0  0  0  0  0  0  0
  -19.5906   11.3900   24.9301 H   0  0  0  0  0  0  0  0  0  0  0  0
  -18.6166   13.2733   25.0773 C   0  0  0  0  0  0  0  0  0  0  0  0
  -17.9704   13.1232   24.2511 H   0  0  0  0  0  0  0  0  0  0  0  0
  -15.1355   19.0611   27.4200 C   0  0  0  0  0  0  0  0  0  0  0  0
  -15.5646   19.9503   26.9550 H   0  0  0  0  0  0  0  0  0  0  0  0
  -14.0510   19.0581   27.2933 H   0  0  0  0  0  0  0  0  0  0  0  0
  -15.3875   19.0188   28.4819 H   0  0  0  0  0  0  0  0  0  0  0  0
  1  2  2  0
  1  3  2  0
  1  4  1  0
  1 21  1  0
  4  5  1  0
  4  6  1  0
  4  7  1  0
  7  8  1  0
  7 12  2  0
  8  9  1  0
  8 10  1  0
 10 11  1  0
 10 19  2  0
 11 12  1  0
 11 13  2  0
 13 14  1  0
 13 15  1  0
 15 16  1  0
 15 17  2  0
 17 18  1  0
 17 19  1  0
 19 20  1  0
 21 22  1  0
 21 23  1  0
 21 24  1  0
M  END
$$$$
