F96_40
     RDKit          3D

 19 19  0  0  0  0  0  0  0  0999 V2000
  -20.5804   13.5120   28.2559 O   0  0  0  0  0  0  0  0  0  0  0  0
  -21.1718   12.6884   27.5727 C   0  0  0  0  0  0  0  0  0  0  0  0
  -20.5357   11.8603   26.7563 N   0  0  0  0  0  0  0  0  0  0  0  0
  -21.0533   11.2020   26.1996 H   0  0  0  0  0  0  0  0  0  0  0  0
  -19.0943   11.8678   26.6235 C   0  0  0  0  0  0  0  0  0  0  0  0
  -18.6544   12.0066   27.6170 H   0  0  0  0  0  0  0  0  0  0  0  0
  -18.7697   10.8928   26.2443 H   0  0  0  0  0  0  0  0  0  0  0  0
  -18.7002   12.9654   25.7018 C   0  0  0  0  0  0  0  0  0  0  0  0
  -18.0155   14.0907   26.0150 C   0  0  0  0  0  0  0  0  0  0  0  0
  -17.6196   14.4431   26.9326 H   0  0  0  0  0  0  0  0  0  0  0  0
  -17.8935   14.7791   24.8598 N   0  0  0  0  0  0  0  0  0  0  0  0
  -17.4132   15.6922   24.7545 H   0  0  0  0  0  0  0  0  0  0  0  0
  -18.4846   14.1344   23.8203 N   0  0  0  0  0  0  0  0  0  0  0  0
  -18.9675   13.0388   24.3384 C   0  0  0  0  0  0  0  0  0  0  0  0
  -19.4969   12.3134   23.7728 H   0  0  0  0  0  0  0  0  0  0  0  0
  -22.6706   12.5697   27.5810 C   0  0  0  0  0  0  0  0  0  0  0  0
  -22.9893   11.5628   27.2970 H   0  0  0  0  0  0  0  0  0  0  0  0
  -23.0904   13.2910   26.8758 H   0  0  0  0  0  0  0  0  0  0  0  0
  -23.0455   12.7807   28.5863 H   0  0  0  0  0  0  0  0  0  0  0  0
  1  2  2  0
  2  3  1  0
  2 16  1  0
  3  4  1  0
  3  5  1  0
  5  6  1  0
  5  7  1  0
  5  8  1  0
  8  9  2  0
  8 14  1  0
  9 10  1  0
  9 11  1  0
 11 12  1  0
 11 13  1  0
 13 14  2  0
 14 15  1  0
 16 17  1  0
 16 18  1  0
 16 19  1  0
M  END
$$$$
