F205_6
     RDKit          3D

 20 20  0  0  0  0  0  0  0  0999 V2000
  -23.8574   12.7344   26.2917 O   0  0  0  0  0  0  0  0  0  0  0  0
  -23.6036   12.7660   27.5118 C   0  0  0  0  0  0  0  0  0  0  0  0
  -24.5641   13.2975   28.3938 N   0  0  0  0  0  0  0  0  0  0  0  0
  -25.8281   13.7943   27.8586 C   0  0  0  0  0  0  0  0  0  0  0  0
  -26.6560   13.2425   28.3136 H   0  0  0  0  0  0  0  0  0  0  0  0
  -25.8979   13.6703   26.7742 H   0  0  0  0  0  0  0  0  0  0  0  0
  -25.9190   14.8621   28.0823 H   0  0  0  0  0  0  0  0  0  0  0  0
  -24.3126   13.3637   29.7833 C   0  0  0  0  0  0  0  0  0  0  0  0
  -25.3449   13.9606   30.6989 C   0  0  0  0  0  0  0  0  0  0  0  0
  -25.5391   15.0055   30.4355 H   0  0  0  0  0  0  0  0  0  0  0  0
  -25.0177   13.9470   31.7442 H   0  0  0  0  0  0  0  0  0  0  0  0
  -26.2826   13.3994   30.6478 H   0  0  0  0  0  0  0  0  0  0  0  0
  -23.1376   12.8712   30.2800 C   0  0  0  0  0  0  0  0  0  0  0  0
  -22.9456   12.9123   31.3211 H   0  0  0  0  0  0  0  0  0  0  0  0
  -22.1473   12.3061   29.4319 C   0  0  0  0  0  0  0  0  0  0  0  0
  -21.2438   11.9386   29.8452 H   0  0  0  0  0  0  0  0  0  0  0  0
  -22.3647   12.2580   28.0869 C   0  0  0  0  0  0  0  0  0  0  0  0
  -21.4508   11.7371   27.2047 N   0  0  0  0  0  0  0  0  0  0  0  0
  -20.5674   11.3636   27.5204 H   0  0  0  0  0  0  0  0  0  0  0  0
  -21.6981   11.7406   26.2179 H   0  0  0  0  0  0  0  0  0  0  0  0
  1  2  2  0
  2  3  1  0
  2 17  1  0
  3  4  1  0
  3  8  1  0
  4  5  1  0
  4  6  1  0
  4  7  1  0
  8  9  1  0
  8 13  2  0
  9 10  1  0
  9 11  1  0
  9 12  1  0
 13 14  1  0
 13 15  1  0
 15 16  1  0
 15 17  2  0
 17 18  1  0
 18 19  1  0
 18 20  1  0
M  END
$$$$
