F5_42
     RDKit          3D

 21 21  0  0  0  0  0  0  0  0999 V2000
  -27.0960   15.4829   29.7130 Br  0  0  0  0  0  0  0  0  0  0  0  0
  -25.7140   14.2693   29.2678 C   0  0  0  0  0  0  0  0  0  0  0  0
  -24.8577   13.7949   30.2555 C   0  0  0  0  0  0  0  0  0  0  0  0
  -24.9665   14.1066   31.2593 H   0  0  0  0  0  0  0  0  0  0  0  0
  -23.8432   12.9055   29.9142 C   0  0  0  0  0  0  0  0  0  0  0  0
  -23.0137   12.4848   30.9209 O   0  0  0  0  0  0  0  0  0  0  0  0
  -23.5080   11.4307   31.7819 C   0  0  0  0  0  0  0  0  0  0  0  0
  -22.8304   11.3394   32.6292 H   0  0  0  0  0  0  0  0  0  0  0  0
  -23.5389   10.5069   31.2060 H   0  0  0  0  0  0  0  0  0  0  0  0
  -24.5084   11.6924   32.1253 H   0  0  0  0  0  0  0  0  0  0  0  0
  -23.6740   12.4612   28.5955 C   0  0  0  0  0  0  0  0  0  0  0  0
  -22.5962   11.4547   28.1915 C   0  0  0  0  0  0  0  0  0  0  0  0
  -22.9527   10.8777   27.3524 H   0  0  0  0  0  0  0  0  0  0  0  0
  -22.3097   10.8315   29.0222 H   0  0  0  0  0  0  0  0  0  0  0  0
  -21.3685   12.2085   27.7324 C   0  0  0  0  0  0  0  0  0  0  0  0
  -21.3555   12.6241   26.5516 O   0  0  0  0  0  0  0  0  0  0  0  0
  -20.4196   12.3281   28.5393 O   0  0  0  0  0  0  0  0  0  0  0  0
  -24.5372   12.9534   27.6180 C   0  0  0  0  0  0  0  0  0  0  0  0
  -24.4111   12.6443   26.6095 H   0  0  0  0  0  0  0  0  0  0  0  0
  -25.5501   13.8506   27.9482 C   0  0  0  0  0  0  0  0  0  0  0  0
  -26.1941   14.2173   27.1922 H   0  0  0  0  0  0  0  0  0  0  0  0
  1  2  1  0
  2  3  1  0
  2 20  2  0
  3  4  1  0
  3  5  2  0
  5  6  1  0
  5 11  1  0
  6  7  1  0
  7  8  1  0
  7  9  1  0
  7 10  1  0
 11 12  1  0
 11 18  2  0
 12 13  1  0
 12 14  1  0
 12 15  1  0
 15 16  1  0
 15 17  2  0
 18 19  1  0
 18 20  1  0
 20 21  1  0
M  END
$$$$
