F217_82
     RDKit          3D

 28 29  0  0  0  0  0  0  0  0999 V2000
  -17.8235   12.2913   22.3494 O   0  0  0  0  0  0  0  0  0  0  0  0
  -17.9602   12.9298   23.3799 C   0  0  0  0  0  0  0  0  0  0  0  0
  -16.9802   13.7067   23.7963 N   0  0  0  0  0  0  0  0  0  0  0  0
  -16.1511   13.7298   23.2259 H   0  0  0  0  0  0  0  0  0  0  0  0
  -17.0611   14.2414   24.6432 H   0  0  0  0  0  0  0  0  0  0  0  0
  -19.1960   12.9036   24.2396 C   0  0  0  0  0  0  0  0  0  0  0  0
  -19.6342   13.9077   24.2532 H   0  0  0  0  0  0  0  0  0  0  0  0
  -19.9261   12.2320   23.7720 H   0  0  0  0  0  0  0  0  0  0  0  0
  -18.8674   12.4433   25.6536 C   0  0  0  0  0  0  0  0  0  0  0  0
  -17.8333   12.6880   25.9193 H   0  0  0  0  0  0  0  0  0  0  0  0
  -18.9623   11.3548   25.7513 H   0  0  0  0  0  0  0  0  0  0  0  0
  -19.7493   13.0501   26.6328 N   0  0  0  0  0  0  0  0  0  0  0  0
  -19.6705   14.3283   27.1356 C   0  0  0  0  0  0  0  0  0  0  0  0
  -18.6205   15.3016   26.7340 C   0  0  0  0  0  0  0  0  0  0  0  0
  -18.8128   16.2790   27.1864 H   0  0  0  0  0  0  0  0  0  0  0  0
  -18.6025   15.4321   25.6485 H   0  0  0  0  0  0  0  0  0  0  0  0
  -17.6349   14.9643   27.0688 H   0  0  0  0  0  0  0  0  0  0  0  0
  -20.6129   14.5675   27.9856 N   0  0  0  0  0  0  0  0  0  0  0  0
  -21.3530   13.4083   28.0595 C   0  0  0  0  0  0  0  0  0  0  0  0
  -20.8232   12.4496   27.2199 C   0  0  0  0  0  0  0  0  0  0  0  0
  -21.3724   11.1657   27.0887 C   0  0  0  0  0  0  0  0  0  0  0  0
  -20.9433   10.4464   26.4398 H   0  0  0  0  0  0  0  0  0  0  0  0
  -22.4982   10.8686   27.8412 C   0  0  0  0  0  0  0  0  0  0  0  0
  -22.9444    9.9110   27.7719 H   0  0  0  0  0  0  0  0  0  0  0  0
  -23.0576   11.8376   28.7050 C   0  0  0  0  0  0  0  0  0  0  0  0
  -23.9192   11.5937   29.2742 H   0  0  0  0  0  0  0  0  0  0  0  0
  -22.4913   13.1002   28.8166 C   0  0  0  0  0  0  0  0  0  0  0  0
  -22.9010   13.8314   29.4609 H   0  0  0  0  0  0  0  0  0  0  0  0
  1  2  2  0
  2  3  1  0
  2  6  1  0
  3  4  1  0
  3  5  1  0
  6  7  1  0
  6  8  1  0
  6  9  1  0
  9 10  1  0
  9 11  1  0
  9 12  1  0
 12 13  1  0
 12 20  1  0
 13 14  1  0
 13 18  2  0
 14 15  1  0
 14 16  1  0
 14 17  1  0
 18 19  1  0
 19 20  1  0
 19 27  2  0
 20 21  2  0
 21 22  1  0
 21 23  1  0
 23 24  1  0
 23 25  2  0
 25 26  1  0
 25 27  1  0
 27 28  1  0
M  END
$$$$
