F389_93
     RDKit          3D

 18 18  0  0  0  0  0  0  0  0999 V2000
  -22.0256   11.0011   27.3120 O   0  0  0  0  0  0  0  0  0  0  0  0
  -22.1635   12.2065   27.4634 C   0  0  0  0  0  0  0  0  0  0  0  0
  -21.1642   13.1278   27.3235 O   0  0  0  0  0  0  0  0  0  0  0  0
  -19.8811   12.6197   26.9261 C   0  0  0  0  0  0  0  0  0  0  0  0
  -20.0387   12.0261   26.0193 H   0  0  0  0  0  0  0  0  0  0  0  0
  -19.4680   11.9461   27.6851 H   0  0  0  0  0  0  0  0  0  0  0  0
  -18.9359   13.7673   26.6275 C   0  0  0  0  0  0  0  0  0  0  0  0
  -18.7628   14.3760   27.5207 H   0  0  0  0  0  0  0  0  0  0  0  0
  -19.3636   14.4311   25.8692 H   0  0  0  0  0  0  0  0  0  0  0  0
  -17.9735   13.3935   26.2669 H   0  0  0  0  0  0  0  0  0  0  0  0
  -23.4334   12.8117   27.8214 C   0  0  0  0  0  0  0  0  0  0  0  0
  -23.6343   13.9604   28.5286 C   0  0  0  0  0  0  0  0  0  0  0  0
  -22.9545   14.6483   28.9615 H   0  0  0  0  0  0  0  0  0  0  0  0
  -24.9662   14.1154   28.6082 N   0  0  0  0  0  0  0  0  0  0  0  0
  -25.4492   14.9004   29.0878 H   0  0  0  0  0  0  0  0  0  0  0  0
  -25.6363   13.1112   27.9797 N   0  0  0  0  0  0  0  0  0  0  0  0
  -24.7055   12.3298   27.5088 C   0  0  0  0  0  0  0  0  0  0  0  0
  -24.9079   11.4447   26.9595 H   0  0  0  0  0  0  0  0  0  0  0  0
  1  2  2  0
  2  3  1  0
  2 11  1  0
  3  4  1  0
  4  5  1  0
  4  6  1  0
  4  7  1  0
  7  8  1  0
  7  9  1  0
  7 10  1  0
 11 12  2  0
 11 17  1  0
 12 13  1  0
 12 14  1  0
 14 15  1  0
 14 16  1  0
 16 17  2  0
 17 18  1  0
M  END
$$$$
