F616_64
     RDKit          3D

 26 26  0  0  0  0  0  0  0  0999 V2000
  -19.0131   12.8702   27.2208 S   0  0  0  0  0  0  0  0  0  0  0  0
  -17.7886   12.3407   27.7802 O   0  0  0  0  0  0  0  0  0  0  0  0
  -19.1993   14.2896   27.0066 O   0  0  0  0  0  0  0  0  0  0  0  0
  -20.3151   12.3456   28.1522 N   0  0  0  0  0  0  0  0  0  0  0  0
  -20.0764   12.0770   29.1101 H   0  0  0  0  0  0  0  0  0  0  0  0
  -21.6489   12.9402   27.9429 C   0  0  0  0  0  0  0  0  0  0  0  0
  -21.7194   13.8366   28.5689 H   0  0  0  0  0  0  0  0  0  0  0  0
  -21.7859   13.2391   26.8979 H   0  0  0  0  0  0  0  0  0  0  0  0
  -22.7419   11.9537   28.3609 C   0  0  0  0  0  0  0  0  0  0  0  0
  -22.8900   11.1917   27.5847 H   0  0  0  0  0  0  0  0  0  0  0  0
  -22.4102   11.4097   29.2545 H   0  0  0  0  0  0  0  0  0  0  0  0
  -24.0616   12.6272   28.6681 C   0  0  0  0  0  0  0  0  0  0  0  0
  -24.5774   12.5982   29.9692 C   0  0  0  0  0  0  0  0  0  0  0  0
  -24.0536   12.0942   30.7392 H   0  0  0  0  0  0  0  0  0  0  0  0
  -25.7835   13.2315   30.2596 C   0  0  0  0  0  0  0  0  0  0  0  0
  -26.1840   13.2161   31.2401 H   0  0  0  0  0  0  0  0  0  0  0  0
  -26.4565   13.8889   29.2399 C   0  0  0  0  0  0  0  0  0  0  0  0
  -27.6176   14.4991   29.5179 F   0  0  0  0  0  0  0  0  0  0  0  0
  -25.9653   13.9375   27.9433 C   0  0  0  0  0  0  0  0  0  0  0  0
  -26.4991   14.4531   27.1888 H   0  0  0  0  0  0  0  0  0  0  0  0
  -24.7595   13.3003   27.6602 C   0  0  0  0  0  0  0  0  0  0  0  0
  -24.3680   13.3363   26.6750 H   0  0  0  0  0  0  0  0  0  0  0  0
  -19.3231   12.0455   25.6744 C   0  0  0  0  0  0  0  0  0  0  0  0
  -19.2549   10.9661   25.8209 H   0  0  0  0  0  0  0  0  0  0  0  0
  -18.5593   12.3679   24.9632 H   0  0  0  0  0  0  0  0  0  0  0  0
  -20.3112   12.3327   25.3111 H   0  0  0  0  0  0  0  0  0  0  0  0
  1  2  2  0
  1  3  2  0
  1  4  1  0
  1 23  1  0
  4  5  1  0
  4  6  1  0
  6  7  1  0
  6  8  1  0
  6  9  1  0
  9 10  1  0
  9 11  1  0
  9 12  1  0
 12 13  1  0
 12 21  2  0
 13 14  1  0
 13 15  2  0
 15 16  1  0
 15 17  1  0
 17 18  1  0
 17 19  2  0
 19 20  1  0
 19 21  1  0
 21 22  1  0
 23 24  1  0
 23 25  1  0
 23 26  1  0
M  END
$$$$
