F95_12
     RDKit          3D

 27 27  0  0  0  0  0  0  0  0999 V2000
  -19.5050   12.8614   25.7672 S   0  0  0  0  0  0  0  0  0  0  0  0
  -20.5673   12.6720   26.7305 O   0  0  0  0  0  0  0  0  0  0  0  0
  -19.7572   12.8794   24.3430 O   0  0  0  0  0  0  0  0  0  0  0  0
  -18.3604   11.6560   26.0510 N   0  0  0  0  0  0  0  0  0  0  0  0
  -18.4171   10.8991   25.3656 H   0  0  0  0  0  0  0  0  0  0  0  0
  -18.3702   11.3346   27.0221 H   0  0  0  0  0  0  0  0  0  0  0  0
  -18.6062   14.3088   26.1968 C   0  0  0  0  0  0  0  0  0  0  0  0
  -17.7016   14.2955   27.2626 C   0  0  0  0  0  0  0  0  0  0  0  0
  -17.5346   13.3919   27.7965 H   0  0  0  0  0  0  0  0  0  0  0  0
  -17.0282   15.4530   27.6356 C   0  0  0  0  0  0  0  0  0  0  0  0
  -16.3484   15.4262   28.4499 H   0  0  0  0  0  0  0  0  0  0  0  0
  -17.2508   16.6466   26.9518 C   0  0  0  0  0  0  0  0  0  0  0  0
  -16.5765   17.9139   27.4000 C   0  0  0  0  0  0  0  0  0  0  0  0
  -15.7622   17.6959   28.1020 H   0  0  0  0  0  0  0  0  0  0  0  0
  -17.2831   18.5690   27.9242 H   0  0  0  0  0  0  0  0  0  0  0  0
  -16.0360   18.6298   26.2644 N   0  0  0  0  0  0  0  0  0  0  0  0
  -16.6222   19.3203   25.8279 H   0  0  0  0  0  0  0  0  0  0  0  0
  -14.8163   18.4030   25.7966 C   0  0  0  0  0  0  0  0  0  0  0  0
  -14.0720   17.5740   26.2986 O   0  0  0  0  0  0  0  0  0  0  0  0
  -14.4161   19.2456   24.6194 C   0  0  0  0  0  0  0  0  0  0  0  0
  -15.1734   19.1758   23.8333 H   0  0  0  0  0  0  0  0  0  0  0  0
  -14.3131   20.2884   24.9328 H   0  0  0  0  0  0  0  0  0  0  0  0
  -13.4606   18.8933   24.2214 H   0  0  0  0  0  0  0  0  0  0  0  0
  -18.1582   16.6704   25.8956 C   0  0  0  0  0  0  0  0  0  0  0  0
  -18.3453   17.5775   25.3775 H   0  0  0  0  0  0  0  0  0  0  0  0
  -18.8325   15.5117   25.5235 C   0  0  0  0  0  0  0  0  0  0  0  0
  -19.5323   15.5419   24.7249 H   0  0  0  0  0  0  0  0  0  0  0  0
  1  2  2  0
  1  3  2  0
  1  4  1  0
  1  7  1  0
  4  5  1  0
  4  6  1  0
  7  8  1  0
  7 26  2  0
  8  9  1  0
  8 10  2  0
 10 11  1  0
 10 12  1  0
 12 13  1  0
 12 24  2  0
 13 14  1  0
 13 15  1  0
 13 16  1  0
 16 17  1  0
 16 18  1  0
 18 19  2  0
 18 20  1  0
 20 21  1  0
 20 22  1  0
 20 23  1  0
 24 25  1  0
 24 26  1  0
 26 27  1  0
M  END
$$$$
