F687_32
     RDKit          3D

 24 25  0  0  0  0  0  0  0  0999 V2000
  -24.1841   12.6977   26.2784 F   0  0  0  0  0  0  0  0  0  0  0  0
  -23.7784   12.5647   27.5506 C   0  0  0  0  0  0  0  0  0  0  0  0
  -22.4167   12.3660   27.8547 C   0  0  0  0  0  0  0  0  0  0  0  0
  -21.4193   12.2959   26.8987 N   0  0  0  0  0  0  0  0  0  0  0  0
  -21.5874   11.8449   26.0044 H   0  0  0  0  0  0  0  0  0  0  0  0
  -20.0712   12.8265   27.0417 C   0  0  0  0  0  0  0  0  0  0  0  0
  -20.1017   13.7274   27.6675 H   0  0  0  0  0  0  0  0  0  0  0  0
  -19.4420   12.0836   27.5463 H   0  0  0  0  0  0  0  0  0  0  0  0
  -19.3914   13.1949   25.7514 C   0  0  0  0  0  0  0  0  0  0  0  0
  -19.0009   12.2786   24.8985 N   0  0  0  0  0  0  0  0  0  0  0  0
  -18.4387   12.9704   23.8719 N   0  0  0  0  0  0  0  0  0  0  0  0
  -18.0332   12.5084   23.0372 H   0  0  0  0  0  0  0  0  0  0  0  0
  -18.4801   14.3030   24.0780 C   0  0  0  0  0  0  0  0  0  0  0  0
  -18.0925   15.0024   23.3828 H   0  0  0  0  0  0  0  0  0  0  0  0
  -19.0881   14.4659   25.2729 C   0  0  0  0  0  0  0  0  0  0  0  0
  -19.3015   15.3866   25.7544 H   0  0  0  0  0  0  0  0  0  0  0  0
  -22.0481   12.2229   29.1946 C   0  0  0  0  0  0  0  0  0  0  0  0
  -21.0331   12.0579   29.4471 H   0  0  0  0  0  0  0  0  0  0  0  0
  -23.0153   12.2941   30.1973 C   0  0  0  0  0  0  0  0  0  0  0  0
  -22.7278   12.1882   31.2117 H   0  0  0  0  0  0  0  0  0  0  0  0
  -24.3585   12.5049   29.8783 C   0  0  0  0  0  0  0  0  0  0  0  0
  -25.0842   12.5585   30.6491 H   0  0  0  0  0  0  0  0  0  0  0  0
  -24.7423   12.6393   28.5451 C   0  0  0  0  0  0  0  0  0  0  0  0
  -25.7587   12.7919   28.2893 H   0  0  0  0  0  0  0  0  0  0  0  0
  1  2  1  0
  2  3  1  0
  2 23  2  0
  3  4  1  0
  3 17  2  0
  4  5  1  0
  4  6  1  0
  6  7  1  0
  6  8  1  0
  6  9  1  0
  9 10  2  0
  9 15  1  0
 10 11  1  0
 11 12  1  0
 11 13  1  0
 13 14  1  0
 13 15  2  0
 15 16  1  0
 17 18  1  0
 17 19  1  0
 19 20  1  0
 19 21  2  0
 21 22  1  0
 21 23  1  0
 23 24  1  0
M  END
$$$$
