F369_60
     RDKit          3D

 32 33  0  0  0  0  0  0  0  0999 V2000
  -20.6771   14.5324   27.9347 O   0  0  0  0  0  0  0  0  0  0  0  0
  -20.3704   13.3914   27.6498 C   0  0  0  0  0  0  0  0  0  0  0  0
  -21.1373   12.3381   28.0605 N   0  0  0  0  0  0  0  0  0  0  0  0
  -20.7809   11.4235   27.7664 H   0  0  0  0  0  0  0  0  0  0  0  0
  -22.3032   12.3632   28.8107 C   0  0  0  0  0  0  0  0  0  0  0  0
  -22.9695   13.4455   29.2628 C   0  0  0  0  0  0  0  0  0  0  0  0
  -22.7836   14.4821   29.1593 H   0  0  0  0  0  0  0  0  0  0  0  0
  -24.0310   12.9441   29.9386 N   0  0  0  0  0  0  0  0  0  0  0  0
  -25.0668   13.6803   30.6319 C   0  0  0  0  0  0  0  0  0  0  0  0
  -25.5018   14.3893   29.9193 H   0  0  0  0  0  0  0  0  0  0  0  0
  -25.8483   12.9683   30.9191 H   0  0  0  0  0  0  0  0  0  0  0  0
  -24.5368   14.4034   31.8574 C   0  0  0  0  0  0  0  0  0  0  0  0
  -23.7637   15.1295   31.5850 H   0  0  0  0  0  0  0  0  0  0  0  0
  -24.0957   13.6990   32.5712 H   0  0  0  0  0  0  0  0  0  0  0  0
  -25.3460   14.9394   32.3622 H   0  0  0  0  0  0  0  0  0  0  0  0
  -24.0563   11.5789   29.9218 N   0  0  0  0  0  0  0  0  0  0  0  0
  -22.9984   11.2340   29.2337 C   0  0  0  0  0  0  0  0  0  0  0  0
  -22.7302   10.2284   29.0378 H   0  0  0  0  0  0  0  0  0  0  0  0
  -19.1232   13.0581   26.8447 C   0  0  0  0  0  0  0  0  0  0  0  0
  -18.5094   12.3966   27.4690 H   0  0  0  0  0  0  0  0  0  0  0  0
  -19.4480   12.3566   25.5193 C   0  0  0  0  0  0  0  0  0  0  0  0
  -19.2921   11.2748   25.5897 H   0  0  0  0  0  0  0  0  0  0  0  0
  -20.4888   12.5105   25.2144 H   0  0  0  0  0  0  0  0  0  0  0  0
  -18.5068   12.9799   24.4982 C   0  0  0  0  0  0  0  0  0  0  0  0
  -17.5298   12.4838   24.5336 H   0  0  0  0  0  0  0  0  0  0  0  0
  -18.8916   12.9039   23.4774 H   0  0  0  0  0  0  0  0  0  0  0  0
  -18.3803   14.4194   24.9641 C   0  0  0  0  0  0  0  0  0  0  0  0
  -19.2702   14.9908   24.6782 H   0  0  0  0  0  0  0  0  0  0  0  0
  -17.5054   14.9184   24.5383 H   0  0  0  0  0  0  0  0  0  0  0  0
  -18.2917   14.2972   26.4803 C   0  0  0  0  0  0  0  0  0  0  0  0
  -18.6171   15.2147   26.9805 H   0  0  0  0  0  0  0  0  0  0  0  0
  -17.2460   14.1250   26.7668 H   0  0  0  0  0  0  0  0  0  0  0  0
  1  2  2  0
  2  3  1  0
  2 19  1  0
  3  4  1  0
  3  5  1  0
  5  6  2  0
  5 17  1  0
  6  7  1  0
  6  8  1  0
  8  9  1  0
  8 16  1  0
  9 10  1  0
  9 11  1  0
  9 12  1  0
 12 13  1  0
 12 14  1  0
 12 15  1  0
 16 17  2  0
 17 18  1  0
 19 20  1  0
 19 21  1  0
 19 30  1  0
 21 22  1  0
 21 23  1  0
 21 24  1  0
 24 25  1  0
 24 26  1  0
 24 27  1  0
 27 28  1  0
 27 29  1  0
 27 30  1  0
 30 31  1  0
 30 32  1  0
M  END
$$$$
