F14_50
     RDKit          3D

 19 19  0  0  0  0  0  0  0  0999 V2000
  -24.9337   12.6397   29.4327 Br  0  0  0  0  0  0  0  0  0  0  0  0
  -23.3804   12.7117   28.4003 C   0  0  0  0  0  0  0  0  0  0  0  0
  -22.1085   12.4874   28.7944 C   0  0  0  0  0  0  0  0  0  0  0  0
  -21.6957   12.2378   29.7375 H   0  0  0  0  0  0  0  0  0  0  0  0
  -21.3458   12.6609   27.6925 N   0  0  0  0  0  0  0  0  0  0  0  0
  -19.9079   12.5280   27.5687 C   0  0  0  0  0  0  0  0  0  0  0  0
  -19.4973   12.4868   28.5837 H   0  0  0  0  0  0  0  0  0  0  0  0
  -19.7163   11.5689   27.0762 H   0  0  0  0  0  0  0  0  0  0  0  0
  -19.2999   13.6721   26.7719 C   0  0  0  0  0  0  0  0  0  0  0  0
  -19.6850   13.6921   25.7457 H   0  0  0  0  0  0  0  0  0  0  0  0
  -18.2116   13.5504   26.7402 H   0  0  0  0  0  0  0  0  0  0  0  0
  -19.5965   14.9085   27.4272 O   0  0  0  0  0  0  0  0  0  0  0  0
  -18.9570   16.0075   26.7916 C   0  0  0  0  0  0  0  0  0  0  0  0
  -19.2085   16.9176   27.3422 H   0  0  0  0  0  0  0  0  0  0  0  0
  -19.3114   16.1125   25.7621 H   0  0  0  0  0  0  0  0  0  0  0  0
  -17.8707   15.8786   26.8051 H   0  0  0  0  0  0  0  0  0  0  0  0
  -22.0945   12.9961   26.6047 N   0  0  0  0  0  0  0  0  0  0  0  0
  -23.3263   13.0211   27.0456 C   0  0  0  0  0  0  0  0  0  0  0  0
  -24.1607   13.2523   26.4348 H   0  0  0  0  0  0  0  0  0  0  0  0
  1  2  1  0
  2  3  2  0
  2 18  1  0
  3  4  1  0
  3  5  1  0
  5  6  1  0
  5 17  1  0
  6  7  1  0
  6  8  1  0
  6  9  1  0
  9 10  1  0
  9 11  1  0
  9 12  1  0
 12 13  1  0
 13 14  1  0
 13 15  1  0
 13 16  1  0
 17 18  2  0
 18 19  1  0
M  END
$$$$
