F740_10
     RDKit          3D

 26 28  0  0  0  0  0  0  0  0999 V2000
  -19.3974   15.3126   24.8487 O   0  0  0  0  0  0  0  0  0  0  0  0
  -18.7754   15.3582   25.9053 C   0  0  0  0  0  0  0  0  0  0  0  0
  -18.6994   14.2106   26.6537 N   0  0  0  0  0  0  0  0  0  0  0  0
  -18.0892   14.2089   27.4760 H   0  0  0  0  0  0  0  0  0  0  0  0
  -19.4009   13.0086   26.3303 C   0  0  0  0  0  0  0  0  0  0  0  0
  -20.4124   12.9889   26.7306 H   0  0  0  0  0  0  0  0  0  0  0  0
  -18.6819   11.6886   26.2640 C   0  0  0  0  0  0  0  0  0  0  0  0
  -17.6106   11.6678   26.4244 H   0  0  0  0  0  0  0  0  0  0  0  0
  -19.2031   10.8119   26.6301 H   0  0  0  0  0  0  0  0  0  0  0  0
  -19.1861   12.3300   25.0053 C   0  0  0  0  0  0  0  0  0  0  0  0
  -20.0522   11.8969   24.5200 H   0  0  0  0  0  0  0  0  0  0  0  0
  -18.4610   12.7562   24.3225 H   0  0  0  0  0  0  0  0  0  0  0  0
  -18.0681   16.5721   26.3686 C   0  0  0  0  0  0  0  0  0  0  0  0
  -16.7934   16.4182   26.9462 C   0  0  0  0  0  0  0  0  0  0  0  0
  -16.3571   15.4587   27.0490 H   0  0  0  0  0  0  0  0  0  0  0  0
  -16.1167   17.5457   27.3806 C   0  0  0  0  0  0  0  0  0  0  0  0
  -14.8882   17.5667   27.9601 O   0  0  0  0  0  0  0  0  0  0  0  0
  -14.7182   18.9813   28.1874 C   0  0  0  0  0  0  0  0  0  0  0  0
  -14.5790   19.1498   29.2607 H   0  0  0  0  0  0  0  0  0  0  0  0
  -13.8181   19.3159   27.6590 H   0  0  0  0  0  0  0  0  0  0  0  0
  -15.8383   19.7723   27.7374 O   0  0  0  0  0  0  0  0  0  0  0  0
  -16.6573   18.8012   27.2533 C   0  0  0  0  0  0  0  0  0  0  0  0
  -17.9059   18.9952   26.6797 C   0  0  0  0  0  0  0  0  0  0  0  0
  -18.3038   19.9731   26.5825 H   0  0  0  0  0  0  0  0  0  0  0  0
  -18.6086   17.8752   26.2337 C   0  0  0  0  0  0  0  0  0  0  0  0
  -19.5553   18.0113   25.7766 H   0  0  0  0  0  0  0  0  0  0  0  0
  1  2  2  0
  2  3  1  0
  2 13  1  0
  3  4  1  0
  3  5  1  0
  5  6  1  0
  5  7  1  0
  5 10  1  0
  7  8  1  0
  7  9  1  0
  7 10  1  0
 10 11  1  0
 10 12  1  0
 13 14  1  0
 13 25  2  0
 14 15  1  0
 14 16  2  0
 16 17  1  0
 16 22  1  0
 17 18  1  0
 18 19  1  0
 18 20  1  0
 18 21  1  0
 21 22  1  0
 22 23  2  0
 23 24  1  0
 23 25  1  0
 25 26  1  0
M  END
$$$$
