F603_33
     RDKit          3D

 24 25  0  0  0  0  0  0  0  0999 V2000
  -19.1788   13.6030   27.0275 S   0  0  0  0  0  0  0  0  0  0  0  0
  -20.1499   14.5035   27.6166 O   0  0  0  0  0  0  0  0  0  0  0  0
  -18.1044   13.0402   27.8289 O   0  0  0  0  0  0  0  0  0  0  0  0
  -18.4385   14.3960   25.6094 C   0  0  0  0  0  0  0  0  0  0  0  0
  -17.7703   13.6739   25.1321 H   0  0  0  0  0  0  0  0  0  0  0  0
  -19.2433   14.6670   24.9206 H   0  0  0  0  0  0  0  0  0  0  0  0
  -17.6753   15.5971   26.0459 C   0  0  0  0  0  0  0  0  0  0  0  0
  -18.2796   16.7436   26.4854 N   0  0  0  0  0  0  0  0  0  0  0  0
  -19.2928   16.9228   26.5315 H   0  0  0  0  0  0  0  0  0  0  0  0
  -17.3096   17.6174   26.8510 C   0  0  0  0  0  0  0  0  0  0  0  0
  -16.1266   16.9482   26.6152 C   0  0  0  0  0  0  0  0  0  0  0  0
  -16.3888   15.6907   26.1139 N   0  0  0  0  0  0  0  0  0  0  0  0
  -14.9137   17.5904   26.8970 C   0  0  0  0  0  0  0  0  0  0  0  0
  -14.0020   17.0836   26.7169 H   0  0  0  0  0  0  0  0  0  0  0  0
  -14.9330   18.8832   27.4051 C   0  0  0  0  0  0  0  0  0  0  0  0
  -14.0218   19.3788   27.6209 H   0  0  0  0  0  0  0  0  0  0  0  0
  -16.1595   19.5477   27.6389 C   0  0  0  0  0  0  0  0  0  0  0  0
  -16.1516   20.5347   28.0282 H   0  0  0  0  0  0  0  0  0  0  0  0
  -17.3641   18.9206   27.3635 C   0  0  0  0  0  0  0  0  0  0  0  0
  -18.2900   19.4070   27.5328 H   0  0  0  0  0  0  0  0  0  0  0  0
  -20.0717   12.2522   26.3009 C   0  0  0  0  0  0  0  0  0  0  0  0
  -20.8191   12.6532   25.6141 H   0  0  0  0  0  0  0  0  0  0  0  0
  -20.5604   11.6955   27.1032 H   0  0  0  0  0  0  0  0  0  0  0  0
  -19.3674   11.6056   25.7730 H   0  0  0  0  0  0  0  0  0  0  0  0
  1  2  2  0
  1  3  2  0
  1  4  1  0
  1 21  1  0
  4  5  1  0
  4  6  1  0
  4  7  1  0
  7  8  1  0
  7 12  2  0
  8  9  1  0
  8 10  1  0
 10 11  1  0
 10 19  2  0
 11 12  1  0
 11 13  2  0
 13 14  1  0
 13 15  1  0
 15 16  1  0
 15 17  2  0
 17 18  1  0
 17 19  1  0
 19 20  1  0
 21 22  1  0
 21 23  1  0
 21 24  1  0
M  END
$$$$
