F309_92
     RDKit          3D

 14 14  0  0  0  0  0  0  0  0999 V2000
  -20.0933    9.9421   25.4854 O   0  0  0  0  0  0  0  0  0  0  0  0
  -19.7679   10.9790   26.1274 C   0  0  0  0  0  0  0  0  0  0  0  0
  -18.5793   11.4111   26.0590 O   0  0  0  0  0  0  0  0  0  0  0  0
  -20.7578   11.6743   26.9402 C   0  0  0  0  0  0  0  0  0  0  0  0
  -20.7031   12.9809   27.3963 C   0  0  0  0  0  0  0  0  0  0  0  0
  -19.5801   13.9384   27.1235 C   0  0  0  0  0  0  0  0  0  0  0  0
  -19.7649   14.9098   27.5936 H   0  0  0  0  0  0  0  0  0  0  0  0
  -19.4708   14.1100   26.0479 H   0  0  0  0  0  0  0  0  0  0  0  0
  -18.6378   13.5535   27.5277 H   0  0  0  0  0  0  0  0  0  0  0  0
  -21.8246   13.3458   28.1585 C   0  0  0  0  0  0  0  0  0  0  0  0
  -21.9558   14.3054   28.5870 H   0  0  0  0  0  0  0  0  0  0  0  0
  -22.7332   12.3366   28.2921 C   0  0  0  0  0  0  0  0  0  0  0  0
  -23.6532   12.3622   28.8164 H   0  0  0  0  0  0  0  0  0  0  0  0
  -22.2257   10.9076   27.4782 S   0  0  0  0  0  0  0  0  0  0  0  0
  1  2  1  0
  2  3  2  0
  2  4  1  0
  4  5  2  0
  4 14  1  0
  5  6  1  0
  5 10  1  0
  6  7  1  0
  6  8  1  0
  6  9  1  0
 10 11  1  0
 10 12  2  0
 12 13  1  0
 12 14  1  0
M  END
$$$$
