F179_74
     RDKit          3D

 29 30  0  0  0  0  0  0  0  0999 V2000
  -24.7731   13.9735   30.1473 C   0  0  0  0  0  0  0  0  0  0  0  0
  -23.8375   14.1058   30.6997 H   0  0  0  0  0  0  0  0  0  0  0  0
  -25.5960   13.9076   30.8679 H   0  0  0  0  0  0  0  0  0  0  0  0
  -24.9502   14.8743   29.5493 H   0  0  0  0  0  0  0  0  0  0  0  0
  -24.7327   12.7292   29.2660 C   0  0  0  0  0  0  0  0  0  0  0  0
  -25.9880   12.6035   28.5970 O   0  0  0  0  0  0  0  0  0  0  0  0
  -26.1075   13.4017   28.0545 H   0  0  0  0  0  0  0  0  0  0  0  0
  -23.6048   12.7749   28.2859 C   0  0  0  0  0  0  0  0  0  0  0  0
  -23.7032   12.9147   26.9064 C   0  0  0  0  0  0  0  0  0  0  0  0
  -24.6108   12.9993   26.3624 H   0  0  0  0  0  0  0  0  0  0  0  0
  -22.5241   12.9298   26.3456 N   0  0  0  0  0  0  0  0  0  0  0  0
  -21.6411   12.7926   27.3749 N   0  0  0  0  0  0  0  0  0  0  0  0
  -20.2187   12.7620   27.1372 C   0  0  0  0  0  0  0  0  0  0  0  0
  -19.7480   12.3334   28.0335 H   0  0  0  0  0  0  0  0  0  0  0  0
  -19.7956   11.9436   25.9183 C   0  0  0  0  0  0  0  0  0  0  0  0
  -19.8573   10.8656   26.0992 H   0  0  0  0  0  0  0  0  0  0  0  0
  -20.4229   12.1666   25.0469 H   0  0  0  0  0  0  0  0  0  0  0  0
  -18.3648   12.3983   25.6458 C   0  0  0  0  0  0  0  0  0  0  0  0
  -17.6505   11.7178   26.1237 H   0  0  0  0  0  0  0  0  0  0  0  0
  -18.1466   12.3996   24.5727 H   0  0  0  0  0  0  0  0  0  0  0  0
  -18.2347   13.7949   26.2544 C   0  0  0  0  0  0  0  0  0  0  0  0
  -17.9355   14.5384   25.5077 H   0  0  0  0  0  0  0  0  0  0  0  0
  -17.4652   13.7879   27.0359 H   0  0  0  0  0  0  0  0  0  0  0  0
  -19.5959   14.1278   26.8559 C   0  0  0  0  0  0  0  0  0  0  0  0
  -20.1905   14.6972   26.1303 H   0  0  0  0  0  0  0  0  0  0  0  0
  -19.5081   14.7403   27.7596 H   0  0  0  0  0  0  0  0  0  0  0  0
  -22.2820   12.6989   28.5617 C   0  0  0  0  0  0  0  0  0  0  0  0
  -21.7609   12.5937   29.4774 H   0  0  0  0  0  0  0  0  0  0  0  0
  -24.6189   11.8411   29.9005 H   0  0  0  0  0  0  0  0  0  0  0  0
  1  2  1  0
  1  3  1  0
  1  4  1  0
  1  5  1  0
  5  6  1  0
  5  8  1  0
  5 29  1  0
  6  7  1  0
  8  9  1  0
  8 27  2  0
  9 10  1  0
  9 11  2  0
 11 12  1  0
 12 13  1  0
 12 27  1  0
 13 14  1  0
 13 15  1  0
 13 24  1  0
 15 16  1  0
 15 17  1  0
 15 18  1  0
 18 19  1  0
 18 20  1  0
 18 21  1  0
 21 22  1  0
 21 23  1  0
 21 24  1  0
 24 25  1  0
 24 26  1  0
 27 28  1  0
M  END
$$$$
