F579_3
     RDKit          3D

 29 31  0  0  0  0  0  0  0  0999 V2000
  -22.0639   13.9698   28.1559 O   0  0  0  0  0  0  0  0  0  0  0  0
  -21.5840   12.9918   27.6277 C   0  0  0  0  0  0  0  0  0  0  0  0
  -20.3634   13.0285   27.0257 N   0  0  0  0  0  0  0  0  0  0  0  0
  -20.0453   12.1612   26.5850 H   0  0  0  0  0  0  0  0  0  0  0  0
  -19.4706   14.0675   26.9049 C   0  0  0  0  0  0  0  0  0  0  0  0
  -17.9588   13.8882   26.0682 S   0  0  0  0  0  0  0  0  0  0  0  0
  -17.6251   15.5470   26.4259 C   0  0  0  0  0  0  0  0  0  0  0  0
  -18.6870   16.0913   27.1469 C   0  0  0  0  0  0  0  0  0  0  0  0
  -19.7421   15.2277   27.4143 N   0  0  0  0  0  0  0  0  0  0  0  0
  -18.6204   17.4379   27.5414 C   0  0  0  0  0  0  0  0  0  0  0  0
  -19.4231   17.8562   28.0898 H   0  0  0  0  0  0  0  0  0  0  0  0
  -17.5106   18.2032   27.2132 C   0  0  0  0  0  0  0  0  0  0  0  0
  -17.4645   19.2178   27.5119 H   0  0  0  0  0  0  0  0  0  0  0  0
  -16.4496   17.6251   26.4804 C   0  0  0  0  0  0  0  0  0  0  0  0
  -15.3063   18.2816   26.0980 O   0  0  0  0  0  0  0  0  0  0  0  0
  -14.3226   18.5164   27.0989 C   0  0  0  0  0  0  0  0  0  0  0  0
  -13.9348   17.5737   27.4994 H   0  0  0  0  0  0  0  0  0  0  0  0
  -13.4880   19.0459   26.6297 H   0  0  0  0  0  0  0  0  0  0  0  0
  -14.7154   19.1553   27.8966 H   0  0  0  0  0  0  0  0  0  0  0  0
  -16.4954   16.3017   26.0823 C   0  0  0  0  0  0  0  0  0  0  0  0
  -15.6984   15.8705   25.5349 H   0  0  0  0  0  0  0  0  0  0  0  0
  -22.2729   11.6828   27.6112 C   0  0  0  0  0  0  0  0  0  0  0  0
  -21.7238   10.9108   27.0788 H   0  0  0  0  0  0  0  0  0  0  0  0
  -23.7808   11.5964   27.5934 C   0  0  0  0  0  0  0  0  0  0  0  0
  -24.3668   12.5081   27.6265 H   0  0  0  0  0  0  0  0  0  0  0  0
  -24.2353   10.7989   27.0183 H   0  0  0  0  0  0  0  0  0  0  0  0
  -23.0266   11.2203   28.8345 C   0  0  0  0  0  0  0  0  0  0  0  0
  -22.9673   10.1712   29.0978 H   0  0  0  0  0  0  0  0  0  0  0  0
  -23.0835   11.8883   29.6876 H   0  0  0  0  0  0  0  0  0  0  0  0
  1  2  2  0
  2  3  1  0
  2 22  1  0
  3  4  1  0
  3  5  1  0
  5  6  1  0
  5  9  2  0
  6  7  1  0
  7  8  1  0
  7 20  2  0
  8  9  1  0
  8 10  2  0
 10 11  1  0
 10 12  1  0
 12 13  1  0
 12 14  2  0
 14 15  1  0
 14 20  1  0
 15 16  1  0
 16 17  1  0
 16 18  1  0
 16 19  1  0
 20 21  1  0
 22 23  1  0
 22 24  1  0
 22 27  1  0
 24 25  1  0
 24 26  1  0
 24 27  1  0
 27 28  1  0
 27 29  1  0
M  END
$$$$
