F14_27
     RDKit          3D

 19 19  0  0  0  0  0  0  0  0999 V2000
  -17.5974   19.0923   27.4068 Br  0  0  0  0  0  0  0  0  0  0  0  0
  -17.3880   17.4130   26.6193 C   0  0  0  0  0  0  0  0  0  0  0  0
  -18.3352   16.6375   26.0495 C   0  0  0  0  0  0  0  0  0  0  0  0
  -19.3777   16.7758   25.9223 H   0  0  0  0  0  0  0  0  0  0  0  0
  -17.6951   15.5243   25.6289 N   0  0  0  0  0  0  0  0  0  0  0  0
  -18.2528   14.3763   24.9418 C   0  0  0  0  0  0  0  0  0  0  0  0
  -19.0364   14.7480   24.2723 H   0  0  0  0  0  0  0  0  0  0  0  0
  -17.4501   13.9462   24.3337 H   0  0  0  0  0  0  0  0  0  0  0  0
  -18.8008   13.3446   25.9158 C   0  0  0  0  0  0  0  0  0  0  0  0
  -18.0164   12.9715   26.5847 H   0  0  0  0  0  0  0  0  0  0  0  0
  -19.2164   12.5022   25.3520 H   0  0  0  0  0  0  0  0  0  0  0  0
  -19.8530   13.9370   26.6826 O   0  0  0  0  0  0  0  0  0  0  0  0
  -20.3905   13.0250   27.6313 C   0  0  0  0  0  0  0  0  0  0  0  0
  -21.1951   13.5275   28.1744 H   0  0  0  0  0  0  0  0  0  0  0  0
  -19.6216   12.7214   28.3475 H   0  0  0  0  0  0  0  0  0  0  0  0
  -20.8036   12.1466   27.1266 H   0  0  0  0  0  0  0  0  0  0  0  0
  -16.3646   15.5634   25.9193 N   0  0  0  0  0  0  0  0  0  0  0  0
  -16.1900   16.7142   26.5171 C   0  0  0  0  0  0  0  0  0  0  0  0
  -15.2504   17.0511   26.8728 H   0  0  0  0  0  0  0  0  0  0  0  0
  1  2  1  0
  2  3  2  0
  2 18  1  0
  3  4  1  0
  3  5  1  0
  5  6  1  0
  5 17  1  0
  6  7  1  0
  6  8  1  0
  6  9  1  0
  9 10  1  0
  9 11  1  0
  9 12  1  0
 12 13  1  0
 13 14  1  0
 13 15  1  0
 13 16  1  0
 17 18  2  0
 18 19  1  0
M  END
$$$$
