F488_60
     RDKit          3D

 39 40  0  0  0  0  0  0  0  0999 V2000
  -22.7008   12.3745   26.3834 O   0  0  0  0  0  0  0  0  0  0  0  0
  -21.8234   12.3243   27.2396 C   0  0  0  0  0  0  0  0  0  0  0  0
  -22.1813   12.0742   28.7038 C   0  0  0  0  0  0  0  0  0  0  0  0
  -21.8833   11.0453   28.9383 H   0  0  0  0  0  0  0  0  0  0  0  0
  -21.5707   12.7108   29.3557 H   0  0  0  0  0  0  0  0  0  0  0  0
  -23.5582   12.2007   29.0177 O   0  0  0  0  0  0  0  0  0  0  0  0
  -24.1489   13.4347   28.9198 C   0  0  0  0  0  0  0  0  0  0  0  0
  -23.7013   14.6024   29.5365 C   0  0  0  0  0  0  0  0  0  0  0  0
  -22.8411   14.6007   30.1533 H   0  0  0  0  0  0  0  0  0  0  0  0
  -24.4006   15.7890   29.3396 C   0  0  0  0  0  0  0  0  0  0  0  0
  -24.0602   16.6807   29.8020 H   0  0  0  0  0  0  0  0  0  0  0  0
  -25.5450   15.8121   28.5420 C   0  0  0  0  0  0  0  0  0  0  0  0
  -26.2772   17.1026   28.3066 C   0  0  0  0  0  0  0  0  0  0  0  0
  -25.8732   17.6035   27.4213 H   0  0  0  0  0  0  0  0  0  0  0  0
  -27.3464   16.9243   28.1565 H   0  0  0  0  0  0  0  0  0  0  0  0
  -26.1772   17.7712   29.1676 H   0  0  0  0  0  0  0  0  0  0  0  0
  -25.9884   14.6339   27.9391 C   0  0  0  0  0  0  0  0  0  0  0  0
  -26.8593   14.6418   27.3365 H   0  0  0  0  0  0  0  0  0  0  0  0
  -25.2939   13.4435   28.1302 C   0  0  0  0  0  0  0  0  0  0  0  0
  -25.6333   12.5460   27.6811 H   0  0  0  0  0  0  0  0  0  0  0  0
  -20.5309   12.5168   26.8687 N   0  0  0  0  0  0  0  0  0  0  0  0
  -20.1780   12.6106   25.4447 C   0  0  0  0  0  0  0  0  0  0  0  0
  -19.6149   11.7009   25.1999 H   0  0  0  0  0  0  0  0  0  0  0  0
  -21.0665   12.6176   24.8063 H   0  0  0  0  0  0  0  0  0  0  0  0
  -19.3294   13.8484   25.1431 C   0  0  0  0  0  0  0  0  0  0  0  0
  -19.8833   14.7736   25.3339 H   0  0  0  0  0  0  0  0  0  0  0  0
  -18.9714   13.8325   24.1096 H   0  0  0  0  0  0  0  0  0  0  0  0
  -18.1068   13.8609   26.0477 N   0  0  0  0  0  0  0  0  0  0  0  0
  -17.5708   13.0023   25.8566 H   0  0  0  0  0  0  0  0  0  0  0  0
  -17.1966   15.0143   25.7405 C   0  0  0  0  0  0  0  0  0  0  0  0
  -16.3166   14.9316   26.3839 H   0  0  0  0  0  0  0  0  0  0  0  0
  -16.8997   14.9408   24.6907 H   0  0  0  0  0  0  0  0  0  0  0  0
  -17.7351   15.9461   25.9310 H   0  0  0  0  0  0  0  0  0  0  0  0
  -18.5125   13.8332   27.5111 C   0  0  0  0  0  0  0  0  0  0  0  0
  -19.0515   14.7650   27.7137 H   0  0  0  0  0  0  0  0  0  0  0  0
  -17.5952   13.7982   28.1069 H   0  0  0  0  0  0  0  0  0  0  0  0
  -19.3952   12.6089   27.7964 C   0  0  0  0  0  0  0  0  0  0  0  0
  -19.7250   12.6623   28.8351 H   0  0  0  0  0  0  0  0  0  0  0  0
  -18.8114   11.6874   27.6795 H   0  0  0  0  0  0  0  0  0  0  0  0
  1  2  2  0
  2  3  1  0
  2 21  1  0
  3  4  1  0
  3  5  1  0
  3  6  1  0
  6  7  1  0
  7  8  1  0
  7 19  2  0
  8  9  1  0
  8 10  2  0
 10 11  1  0
 10 12  1  0
 12 13  1  0
 12 17  2  0
 13 14  1  0
 13 15  1  0
 13 16  1  0
 17 18  1  0
 17 19  1  0
 19 20  1  0
 21 22  1  0
 21 37  1  0
 22 23  1  0
 22 24  1  0
 22 25  1  0
 25 26  1  0
 25 27  1  0
 25 28  1  0
 28 29  1  0
 28 30  1  0
 28 34  1  0
 30 31  1  0
 30 32  1  0
 30 33  1  0
 34 35  1  0
 34 36  1  0
 34 37  1  0
 37 38  1  0
 37 39  1  0
M  END
$$$$
