F368_22
     RDKit          3D

 29 30  0  0  0  0  0  0  0  0999 V2000
  -20.7764   14.3141   28.0112 O   0  0  0  0  0  0  0  0  0  0  0  0
  -20.7448   13.3187   27.3123 C   0  0  0  0  0  0  0  0  0  0  0  0
  -21.8566   12.5386   27.1464 N   0  0  0  0  0  0  0  0  0  0  0  0
  -21.7277   11.7142   26.5485 H   0  0  0  0  0  0  0  0  0  0  0  0
  -23.1203   12.7292   27.6902 C   0  0  0  0  0  0  0  0  0  0  0  0
  -23.5339   13.7436   28.4776 C   0  0  0  0  0  0  0  0  0  0  0  0
  -23.0339   14.5956   28.8536 H   0  0  0  0  0  0  0  0  0  0  0  0
  -24.8364   13.4714   28.7399 N   0  0  0  0  0  0  0  0  0  0  0  0
  -25.7551   14.2434   29.5482 C   0  0  0  0  0  0  0  0  0  0  0  0
  -26.5080   13.5529   29.9454 H   0  0  0  0  0  0  0  0  0  0  0  0
  -25.1935   14.6505   30.3959 H   0  0  0  0  0  0  0  0  0  0  0  0
  -26.4111   15.3631   28.7607 C   0  0  0  0  0  0  0  0  0  0  0  0
  -27.0925   15.9304   29.4020 H   0  0  0  0  0  0  0  0  0  0  0  0
  -25.6617   16.0539   28.3610 H   0  0  0  0  0  0  0  0  0  0  0  0
  -26.9857   14.9683   27.9163 H   0  0  0  0  0  0  0  0  0  0  0  0
  -25.2539   12.3190   28.1369 N   0  0  0  0  0  0  0  0  0  0  0  0
  -24.2010   11.8740   27.5013 C   0  0  0  0  0  0  0  0  0  0  0  0
  -24.1976   10.9828   26.9290 H   0  0  0  0  0  0  0  0  0  0  0  0
  -19.4883   12.8089   26.5458 C   0  0  0  0  0  0  0  0  0  0  0  0
  -18.8714   12.1328   27.1573 H   0  0  0  0  0  0  0  0  0  0  0  0
  -19.7163   12.2114   25.1298 C   0  0  0  0  0  0  0  0  0  0  0  0
  -20.5910   12.6098   24.6045 H   0  0  0  0  0  0  0  0  0  0  0  0
  -19.7380   11.1192   25.0761 H   0  0  0  0  0  0  0  0  0  0  0  0
  -18.3881   12.8669   24.7078 C   0  0  0  0  0  0  0  0  0  0  0  0
  -18.3630   13.2850   23.6987 H   0  0  0  0  0  0  0  0  0  0  0  0
  -17.5138   12.2215   24.8508 H   0  0  0  0  0  0  0  0  0  0  0  0
  -18.6026   13.8790   25.8491 C   0  0  0  0  0  0  0  0  0  0  0  0
  -19.1417   14.7828   25.5407 H   0  0  0  0  0  0  0  0  0  0  0  0
  -17.7005   14.1726   26.3917 H   0  0  0  0  0  0  0  0  0  0  0  0
  1  2  2  0
  2  3  1  0
  2 19  1  0
  3  4  1  0
  3  5  1  0
  5  6  2  0
  5 17  1  0
  6  7  1  0
  6  8  1  0
  8  9  1  0
  8 16  1  0
  9 10  1  0
  9 11  1  0
  9 12  1  0
 12 13  1  0
 12 14  1  0
 12 15  1  0
 16 17  2  0
 17 18  1  0
 19 20  1  0
 19 21  1  0
 19 27  1  0
 21 22  1  0
 21 23  1  0
 21 24  1  0
 24 25  1  0
 24 26  1  0
 24 27  1  0
 27 28  1  0
 27 29  1  0
M  END
$$$$
