F421_9
     RDKit          3D

 19 19  0  0  0  0  0  0  0  0999 V2000
  -26.0693   14.7058   26.8863 O   0  0  0  0  0  0  0  0  0  0  0  0
  -25.7621   13.9953   27.8407 C   0  0  0  0  0  0  0  0  0  0  0  0
  -26.3457   14.3087   29.0668 N   0  0  0  0  0  0  0  0  0  0  0  0
  -27.0070   15.5938   29.2483 C   0  0  0  0  0  0  0  0  0  0  0  0
  -26.6430   16.0505   30.1743 H   0  0  0  0  0  0  0  0  0  0  0  0
  -28.0848   15.4236   29.3245 H   0  0  0  0  0  0  0  0  0  0  0  0
  -26.8125   16.2827   28.4229 H   0  0  0  0  0  0  0  0  0  0  0  0
  -26.3789   13.4167   30.2182 C   0  0  0  0  0  0  0  0  0  0  0  0
  -27.3674   13.4716   30.6860 H   0  0  0  0  0  0  0  0  0  0  0  0
  -25.6215   13.7443   30.9361 H   0  0  0  0  0  0  0  0  0  0  0  0
  -26.2013   12.3780   29.9324 H   0  0  0  0  0  0  0  0  0  0  0  0
  -24.8440   12.8784   27.7111 C   0  0  0  0  0  0  0  0  0  0  0  0
  -23.9077   12.5427   28.6431 C   0  0  0  0  0  0  0  0  0  0  0  0
  -23.6491   12.9915   29.5667 H   0  0  0  0  0  0  0  0  0  0  0  0
  -23.2980   11.4399   28.1770 N   0  0  0  0  0  0  0  0  0  0  0  0
  -22.5306   10.9355   28.6604 H   0  0  0  0  0  0  0  0  0  0  0  0
  -23.8076   11.0404   26.9800 N   0  0  0  0  0  0  0  0  0  0  0  0
  -24.7431   11.9068   26.7129 C   0  0  0  0  0  0  0  0  0  0  0  0
  -25.3457   11.8540   25.8404 H   0  0  0  0  0  0  0  0  0  0  0  0
  1  2  2  0
  2  3  1  0
  2 12  1  0
  3  4  1  0
  3  8  1  0
  4  5  1  0
  4  6  1  0
  4  7  1  0
  8  9  1  0
  8 10  1  0
  8 11  1  0
 12 13  2  0
 12 18  1  0
 13 14  1  0
 13 15  1  0
 15 16  1  0
 15 17  1  0
 17 18  2  0
 18 19  1  0
M  END
$$$$
