F666_16
     RDKit          3D

 35 37  0  0  0  0  0  0  0  0999 V2000
  -19.7904   10.9429   24.9561 F   0  0  0  0  0  0  0  0  0  0  0  0
  -19.3007   12.1047   25.4117 C   0  0  0  0  0  0  0  0  0  0  0  0
  -18.7513   12.1477   26.6870 C   0  0  0  0  0  0  0  0  0  0  0  0
  -18.7230   11.2728   27.2826 H   0  0  0  0  0  0  0  0  0  0  0  0
  -18.2436   13.3534   27.1619 C   0  0  0  0  0  0  0  0  0  0  0  0
  -17.8256   13.3894   28.1296 H   0  0  0  0  0  0  0  0  0  0  0  0
  -18.3016   14.5056   26.3574 C   0  0  0  0  0  0  0  0  0  0  0  0
  -17.8124   15.7158   26.8329 N   0  0  0  0  0  0  0  0  0  0  0  0
  -18.6258   16.9405   26.8700 C   0  0  0  0  0  0  0  0  0  0  0  0
  -19.6102   16.8202   26.4066 H   0  0  0  0  0  0  0  0  0  0  0  0
  -18.8087   17.1931   27.9219 H   0  0  0  0  0  0  0  0  0  0  0  0
  -17.8763   18.1008   26.1960 C   0  0  0  0  0  0  0  0  0  0  0  0
  -18.4548   19.0219   26.2984 H   0  0  0  0  0  0  0  0  0  0  0  0
  -17.7635   17.9017   25.1240 H   0  0  0  0  0  0  0  0  0  0  0  0
  -16.5225   18.2469   26.7477 N   0  0  0  0  0  0  0  0  0  0  0  0
  -16.0075   19.4102   27.2694 C   0  0  0  0  0  0  0  0  0  0  0  0
  -14.8641   19.4090   27.6867 O   0  0  0  0  0  0  0  0  0  0  0  0
  -16.8468   20.6288   27.3069 C   0  0  0  0  0  0  0  0  0  0  0  0
  -16.9660   21.1126   26.3422 H   0  0  0  0  0  0  0  0  0  0  0  0
  -16.7727   21.5639   28.4934 C   0  0  0  0  0  0  0  0  0  0  0  0
  -16.1124   21.3031   29.3130 H   0  0  0  0  0  0  0  0  0  0  0  0
  -16.8442   22.6279   28.3039 H   0  0  0  0  0  0  0  0  0  0  0  0
  -17.9965   20.7256   28.2829 C   0  0  0  0  0  0  0  0  0  0  0  0
  -18.1651   19.9035   28.9700 H   0  0  0  0  0  0  0  0  0  0  0  0
  -18.9012   21.2219   27.9528 H   0  0  0  0  0  0  0  0  0  0  0  0
  -15.7205   17.0178   26.6984 C   0  0  0  0  0  0  0  0  0  0  0  0
  -15.5479   16.7960   25.6390 H   0  0  0  0  0  0  0  0  0  0  0  0
  -14.7415   17.1572   27.1676 H   0  0  0  0  0  0  0  0  0  0  0  0
  -16.4473   15.8389   27.3691 C   0  0  0  0  0  0  0  0  0  0  0  0
  -16.5069   16.0026   28.4514 H   0  0  0  0  0  0  0  0  0  0  0  0
  -15.8476   14.9378   27.1995 H   0  0  0  0  0  0  0  0  0  0  0  0
  -18.8431   14.4280   25.0638 C   0  0  0  0  0  0  0  0  0  0  0  0
  -18.8466   15.2800   24.4371 H   0  0  0  0  0  0  0  0  0  0  0  0
  -19.3532   13.2227   24.5909 C   0  0  0  0  0  0  0  0  0  0  0  0
  -19.7668   13.1505   23.6195 H   0  0  0  0  0  0  0  0  0  0  0  0
  1  2  1  0
  2  3  1  0
  2 34  2  0
  3  4  1  0
  3  5  2  0
  5  6  1  0
  5  7  1  0
  7  8  1  0
  7 32  2  0
  8  9  1  0
  8 29  1  0
  9 10  1  0
  9 11  1  0
  9 12  1  0
 12 13  1  0
 12 14  1  0
 12 15  1  0
 15 16  1  0
 15 26  1  0
 16 17  2  0
 16 18  1  0
 18 19  1  0
 18 20  1  0
 18 23  1  0
 20 21  1  0
 20 22  1  0
 20 23  1  0
 23 24  1  0
 23 25  1  0
 26 27  1  0
 26 28  1  0
 26 29  1  0
 29 30  1  0
 29 31  1  0
 32 33  1  0
 32 34  1  0
 34 35  1  0
M  END
$$$$
