F421_7
     RDKit          3D

 19 19  0  0  0  0  0  0  0  0999 V2000
  -26.0628   14.7137   26.8888 O   0  0  0  0  0  0  0  0  0  0  0  0
  -25.7597   13.9985   27.8410 C   0  0  0  0  0  0  0  0  0  0  0  0
  -26.3488   14.3059   29.0660 N   0  0  0  0  0  0  0  0  0  0  0  0
  -27.0111   15.5900   29.2509 C   0  0  0  0  0  0  0  0  0  0  0  0
  -26.6512   16.0422   30.1808 H   0  0  0  0  0  0  0  0  0  0  0  0
  -28.0892   15.4192   29.3215 H   0  0  0  0  0  0  0  0  0  0  0  0
  -26.8130   16.2830   28.4297 H   0  0  0  0  0  0  0  0  0  0  0  0
  -26.3870   13.4082   30.2129 C   0  0  0  0  0  0  0  0  0  0  0  0
  -27.3775   13.4607   30.6765 H   0  0  0  0  0  0  0  0  0  0  0  0
  -25.6328   13.7325   30.9357 H   0  0  0  0  0  0  0  0  0  0  0  0
  -26.2079   12.3710   29.9227 H   0  0  0  0  0  0  0  0  0  0  0  0
  -24.8409   12.8824   27.7100 C   0  0  0  0  0  0  0  0  0  0  0  0
  -23.9203   12.5318   28.6520 C   0  0  0  0  0  0  0  0  0  0  0  0
  -23.6763   12.9667   29.5863 H   0  0  0  0  0  0  0  0  0  0  0  0
  -23.3043   11.4351   28.1798 N   0  0  0  0  0  0  0  0  0  0  0  0
  -22.5455   10.9227   28.6682 H   0  0  0  0  0  0  0  0  0  0  0  0
  -23.7948   11.0539   26.9689 N   0  0  0  0  0  0  0  0  0  0  0  0
  -24.7248   11.9255   26.6994 C   0  0  0  0  0  0  0  0  0  0  0  0
  -25.3132   11.8863   25.8165 H   0  0  0  0  0  0  0  0  0  0  0  0
  1  2  2  0
  2  3  1  0
  2 12  1  0
  3  4  1  0
  3  8  1  0
  4  5  1  0
  4  6  1  0
  4  7  1  0
  8  9  1  0
  8 10  1  0
  8 11  1  0
 12 13  2  0
 12 18  1  0
 13 14  1  0
 13 15  1  0
 15 16  1  0
 15 17  1  0
 17 18  2  0
 18 19  1  0
M  END
$$$$
