F760_43
     RDKit          3D

 17 18  0  0  0  0  0  0  0  0999 V2000
  -20.9839   19.5226   27.8355 Br  0  0  0  0  0  0  0  0  0  0  0  0
  -19.2676   19.3472   27.0614 C   0  0  0  0  0  0  0  0  0  0  0  0
  -18.5953   18.1293   27.1310 C   0  0  0  0  0  0  0  0  0  0  0  0
  -19.0256   17.2911   27.6129 H   0  0  0  0  0  0  0  0  0  0  0  0
  -17.3372   18.0510   26.5489 C   0  0  0  0  0  0  0  0  0  0  0  0
  -16.4925   16.9521   26.4976 N   0  0  0  0  0  0  0  0  0  0  0  0
  -16.6626   16.0160   26.8846 H   0  0  0  0  0  0  0  0  0  0  0  0
  -15.3438   17.2504   25.8457 C   0  0  0  0  0  0  0  0  0  0  0  0
  -14.4800   16.4177   25.6997 O   0  0  0  0  0  0  0  0  0  0  0  0
  -15.3922   18.7082   25.3944 C   0  0  0  0  0  0  0  0  0  0  0  0
  -14.5864   19.2717   25.8703 H   0  0  0  0  0  0  0  0  0  0  0  0
  -15.3457   18.7605   24.3042 H   0  0  0  0  0  0  0  0  0  0  0  0
  -16.7365   19.1177   25.9114 C   0  0  0  0  0  0  0  0  0  0  0  0
  -17.4082   20.3333   25.8400 C   0  0  0  0  0  0  0  0  0  0  0  0
  -16.9657   21.1660   25.3540 H   0  0  0  0  0  0  0  0  0  0  0  0
  -18.6761   20.4447   26.4172 C   0  0  0  0  0  0  0  0  0  0  0  0
  -19.1977   21.3655   26.3693 H   0  0  0  0  0  0  0  0  0  0  0  0
  1  2  1  0
  2  3  1  0
  2 16  2  0
  3  4  1  0
  3  5  2  0
  5  6  1  0
  5 13  1  0
  6  7  1  0
  6  8  1  0
  8  9  2  0
  8 10  1  0
 10 11  1  0
 10 12  1  0
 10 13  1  0
 13 14  2  0
 14 15  1  0
 14 16  1  0
 16 17  1  0
M  END
$$$$
