F369_83
     RDKit          3D

 32 33  0  0  0  0  0  0  0  0999 V2000
  -21.9627   10.5029   27.1117 O   0  0  0  0  0  0  0  0  0  0  0  0
  -21.3285   11.5396   27.1110 C   0  0  0  0  0  0  0  0  0  0  0  0
  -21.8965   12.7068   27.5369 N   0  0  0  0  0  0  0  0  0  0  0  0
  -21.2706   13.5168   27.4883 H   0  0  0  0  0  0  0  0  0  0  0  0
  -23.1838   12.9160   28.0077 C   0  0  0  0  0  0  0  0  0  0  0  0
  -23.6598   14.0013   28.6522 C   0  0  0  0  0  0  0  0  0  0  0  0
  -23.1995   14.9106   28.9367 H   0  0  0  0  0  0  0  0  0  0  0  0
  -24.9606   13.7165   28.9005 N   0  0  0  0  0  0  0  0  0  0  0  0
  -25.9338   14.5452   29.5801 C   0  0  0  0  0  0  0  0  0  0  0  0
  -25.6944   15.5897   29.3536 H   0  0  0  0  0  0  0  0  0  0  0  0
  -26.9181   14.3243   29.1526 H   0  0  0  0  0  0  0  0  0  0  0  0
  -25.9454   14.3071   31.0797 C   0  0  0  0  0  0  0  0  0  0  0  0
  -24.9715   14.5370   31.5245 H   0  0  0  0  0  0  0  0  0  0  0  0
  -26.1793   13.2622   31.3116 H   0  0  0  0  0  0  0  0  0  0  0  0
  -26.6979   14.9400   31.5593 H   0  0  0  0  0  0  0  0  0  0  0  0
  -25.3199   12.4869   28.4277 N   0  0  0  0  0  0  0  0  0  0  0  0
  -24.2300   12.0058   27.8870 C   0  0  0  0  0  0  0  0  0  0  0  0
  -24.1767   11.0540   27.4259 H   0  0  0  0  0  0  0  0  0  0  0  0
  -19.8878   11.6150   26.6279 C   0  0  0  0  0  0  0  0  0  0  0  0
  -19.5370   10.5817   26.5122 H   0  0  0  0  0  0  0  0  0  0  0  0
  -19.7532   12.3551   25.2905 C   0  0  0  0  0  0  0  0  0  0  0  0
  -19.6513   11.6556   24.4539 H   0  0  0  0  0  0  0  0  0  0  0  0
  -20.6240   12.9843   25.0770 H   0  0  0  0  0  0  0  0  0  0  0  0
  -18.5081   13.2183   25.4370 C   0  0  0  0  0  0  0  0  0  0  0  0
  -17.6116   12.6284   25.2129 H   0  0  0  0  0  0  0  0  0  0  0  0
  -18.5222   14.0849   24.7702 H   0  0  0  0  0  0  0  0  0  0  0  0
  -18.5212   13.6147   26.9026 C   0  0  0  0  0  0  0  0  0  0  0  0
  -19.2489   14.4158   27.0729 H   0  0  0  0  0  0  0  0  0  0  0  0
  -17.5442   13.9648   27.2470 H   0  0  0  0  0  0  0  0  0  0  0  0
  -18.9585   12.3397   27.6132 C   0  0  0  0  0  0  0  0  0  0  0  0
  -19.4178   12.5536   28.5833 H   0  0  0  0  0  0  0  0  0  0  0  0
  -18.0772   11.7131   27.8027 H   0  0  0  0  0  0  0  0  0  0  0  0
  1  2  2  0
  2  3  1  0
  2 19  1  0
  3  4  1  0
  3  5  1  0
  5  6  2  0
  5 17  1  0
  6  7  1  0
  6  8  1  0
  8  9  1  0
  8 16  1  0
  9 10  1  0
  9 11  1  0
  9 12  1  0
 12 13  1  0
 12 14  1  0
 12 15  1  0
 16 17  2  0
 17 18  1  0
 19 20  1  0
 19 21  1  0
 19 30  1  0
 21 22  1  0
 21 23  1  0
 21 24  1  0
 24 25  1  0
 24 26  1  0
 24 27  1  0
 27 28  1  0
 27 29  1  0
 27 30  1  0
 30 31  1  0
 30 32  1  0
M  END
$$$$
