F393_67
     RDKit          3D

 24 24  0  0  0  0  0  0  0  0999 V2000
  -22.5747   12.7026   26.0553 O   0  0  0  0  0  0  0  0  0  0  0  0
  -21.7122   12.8664   26.9092 C   0  0  0  0  0  0  0  0  0  0  0  0
  -21.9714   13.1077   28.2230 O   0  0  0  0  0  0  0  0  0  0  0  0
  -23.3616   13.1084   28.5716 C   0  0  0  0  0  0  0  0  0  0  0  0
  -23.8903   13.8634   27.9799 H   0  0  0  0  0  0  0  0  0  0  0  0
  -23.7903   12.1190   28.3781 H   0  0  0  0  0  0  0  0  0  0  0  0
  -23.4786   13.4389   30.0467 C   0  0  0  0  0  0  0  0  0  0  0  0
  -23.0314   14.4159   30.2601 H   0  0  0  0  0  0  0  0  0  0  0  0
  -22.9374   12.7019   30.6497 H   0  0  0  0  0  0  0  0  0  0  0  0
  -24.5258   13.4532   30.3620 H   0  0  0  0  0  0  0  0  0  0  0  0
  -20.3726   12.8203   26.6215 N   0  0  0  0  0  0  0  0  0  0  0  0
  -19.8998   12.5537   25.2636 C   0  0  0  0  0  0  0  0  0  0  0  0
  -19.4561   11.5514   25.2817 H   0  0  0  0  0  0  0  0  0  0  0  0
  -20.7265   12.5467   24.5460 H   0  0  0  0  0  0  0  0  0  0  0  0
  -18.8458   13.5813   24.8512 C   0  0  0  0  0  0  0  0  0  0  0  0
  -19.2848   14.5816   24.7523 H   0  0  0  0  0  0  0  0  0  0  0  0
  -18.4122   13.3070   23.8840 H   0  0  0  0  0  0  0  0  0  0  0  0
  -17.7793   13.6324   25.8100 O   0  0  0  0  0  0  0  0  0  0  0  0
  -18.2749   14.0104   27.1034 C   0  0  0  0  0  0  0  0  0  0  0  0
  -17.4225   14.0511   27.7888 H   0  0  0  0  0  0  0  0  0  0  0  0
  -18.7040   15.0179   27.0394 H   0  0  0  0  0  0  0  0  0  0  0  0
  -19.3073   13.0021   27.6100 C   0  0  0  0  0  0  0  0  0  0  0  0
  -19.6995   13.3208   28.5797 H   0  0  0  0  0  0  0  0  0  0  0  0
  -18.8372   12.0206   27.7402 H   0  0  0  0  0  0  0  0  0  0  0  0
  1  2  2  0
  2  3  1  0
  2 11  1  0
  3  4  1  0
  4  5  1  0
  4  6  1  0
  4  7  1  0
  7  8  1  0
  7  9  1  0
  7 10  1  0
 11 12  1  0
 11 22  1  0
 12 13  1  0
 12 14  1  0
 12 15  1  0
 15 16  1  0
 15 17  1  0
 15 18  1  0
 18 19  1  0
 19 20  1  0
 19 21  1  0
 19 22  1  0
 22 23  1  0
 22 24  1  0
M  END
$$$$
