F760_42
     RDKit          3D

 17 18  0  0  0  0  0  0  0  0999 V2000
  -20.9796   19.5373   27.8351 Br  0  0  0  0  0  0  0  0  0  0  0  0
  -19.2630   19.3581   27.0625 C   0  0  0  0  0  0  0  0  0  0  0  0
  -18.5922   18.1395   27.1352 C   0  0  0  0  0  0  0  0  0  0  0  0
  -19.0238   17.3029   27.6188 H   0  0  0  0  0  0  0  0  0  0  0  0
  -17.3338   18.0584   26.5541 C   0  0  0  0  0  0  0  0  0  0  0  0
  -16.4904   16.9583   26.5059 N   0  0  0  0  0  0  0  0  0  0  0  0
  -16.6620   16.0233   26.8949 H   0  0  0  0  0  0  0  0  0  0  0  0
  -15.3410   17.2537   25.8541 C   0  0  0  0  0  0  0  0  0  0  0  0
  -14.4780   16.4196   25.7104 O   0  0  0  0  0  0  0  0  0  0  0  0
  -15.3873   18.7106   25.3994 C   0  0  0  0  0  0  0  0  0  0  0  0
  -14.5811   19.2742   25.8745 H   0  0  0  0  0  0  0  0  0  0  0  0
  -15.3401   18.7604   24.3091 H   0  0  0  0  0  0  0  0  0  0  0  0
  -16.7314   19.1229   25.9146 C   0  0  0  0  0  0  0  0  0  0  0  0
  -17.4017   20.3391   25.8401 C   0  0  0  0  0  0  0  0  0  0  0  0
  -16.9578   21.1702   25.3525 H   0  0  0  0  0  0  0  0  0  0  0  0
  -18.6697   20.4534   26.4162 C   0  0  0  0  0  0  0  0  0  0  0  0
  -19.1902   21.3747   26.3659 H   0  0  0  0  0  0  0  0  0  0  0  0
  1  2  1  0
  2  3  1  0
  2 16  2  0
  3  4  1  0
  3  5  2  0
  5  6  1  0
  5 13  1  0
  6  7  1  0
  6  8  1  0
  8  9  2  0
  8 10  1  0
 10 11  1  0
 10 12  1  0
 10 13  1  0
 13 14  2  0
 14 15  1  0
 14 16  1  0
 16 17  1  0
M  END
$$$$
