F13_98
     RDKit          3D

 16 16  0  0  0  0  0  0  0  0999 V2000
  -23.4091   14.1355   29.3660 Br  0  0  0  0  0  0  0  0  0  0  0  0
  -22.3025   13.0320   28.3442 C   0  0  0  0  0  0  0  0  0  0  0  0
  -21.0582   13.2930   27.8926 C   0  0  0  0  0  0  0  0  0  0  0  0
  -20.4299   14.1376   28.0030 H   0  0  0  0  0  0  0  0  0  0  0  0
  -20.6784   12.1896   27.2078 N   0  0  0  0  0  0  0  0  0  0  0  0
  -19.4287   11.9554   26.5114 C   0  0  0  0  0  0  0  0  0  0  0  0
  -18.8332   11.2848   27.1407 H   0  0  0  0  0  0  0  0  0  0  0  0
  -19.6696   11.4361   25.5772 H   0  0  0  0  0  0  0  0  0  0  0  0
  -18.6767   13.2503   26.2470 C   0  0  0  0  0  0  0  0  0  0  0  0
  -17.8465   13.0627   25.5603 H   0  0  0  0  0  0  0  0  0  0  0  0
  -18.2815   13.6905   27.1686 H   0  0  0  0  0  0  0  0  0  0  0  0
  -19.5435   14.1932   25.6237 O   0  0  0  0  0  0  0  0  0  0  0  0
  -19.0228   15.0001   25.4646 H   0  0  0  0  0  0  0  0  0  0  0  0
  -21.6439   11.2301   27.2152 N   0  0  0  0  0  0  0  0  0  0  0  0
  -22.6245   11.7526   27.9050 C   0  0  0  0  0  0  0  0  0  0  0  0
  -23.5376   11.2501   28.0949 H   0  0  0  0  0  0  0  0  0  0  0  0
  1  2  1  0
  2  3  2  0
  2 15  1  0
  3  4  1  0
  3  5  1  0
  5  6  1  0
  5 14  1  0
  6  7  1  0
  6  8  1  0
  6  9  1  0
  9 10  1  0
  9 11  1  0
  9 12  1  0
 12 13  1  0
 14 15  2  0
 15 16  1  0
M  END
$$$$
