F558_48
     RDKit          3D

 32 33  0  0  0  0  0  0  0  0999 V2000
  -19.1589   14.2062   26.5983 O   0  0  0  0  0  0  0  0  0  0  0  0
  -19.5555   13.3214   25.8543 C   0  0  0  0  0  0  0  0  0  0  0  0
  -18.9712   12.9581   24.6823 O   0  0  0  0  0  0  0  0  0  0  0  0
  -18.0706   13.9295   24.1451 C   0  0  0  0  0  0  0  0  0  0  0  0
  -17.2539   14.1238   24.8465 H   0  0  0  0  0  0  0  0  0  0  0  0
  -18.6062   14.8546   23.9068 H   0  0  0  0  0  0  0  0  0  0  0  0
  -17.6483   13.5249   23.2217 H   0  0  0  0  0  0  0  0  0  0  0  0
  -20.6686   12.5639   26.0534 N   0  0  0  0  0  0  0  0  0  0  0  0
  -20.8728   11.9254   25.2791 H   0  0  0  0  0  0  0  0  0  0  0  0
  -21.5596   12.5527   27.1485 C   0  0  0  0  0  0  0  0  0  0  0  0
  -21.1571   12.2850   28.4592 C   0  0  0  0  0  0  0  0  0  0  0  0
  -20.1458   12.0685   28.6803 H   0  0  0  0  0  0  0  0  0  0  0  0
  -22.1019   12.2951   29.4796 C   0  0  0  0  0  0  0  0  0  0  0  0
  -21.7958   12.0903   30.4739 H   0  0  0  0  0  0  0  0  0  0  0  0
  -23.4438   12.5660   29.2049 C   0  0  0  0  0  0  0  0  0  0  0  0
  -24.4689   12.5542   30.3167 C   0  0  0  0  0  0  0  0  0  0  0  0
  -24.0024   12.1767   31.2363 H   0  0  0  0  0  0  0  0  0  0  0  0
  -25.2582   11.8254   30.0891 H   0  0  0  0  0  0  0  0  0  0  0  0
  -25.0902   13.9038   30.5731 C   0  0  0  0  0  0  0  0  0  0  0  0
  -26.2778   14.2814   29.9575 C   0  0  0  0  0  0  0  0  0  0  0  0
  -26.7820   13.6176   29.3055 H   0  0  0  0  0  0  0  0  0  0  0  0
  -26.8109   15.5436   30.1985 C   0  0  0  0  0  0  0  0  0  0  0  0
  -27.7165   15.8400   29.7315 H   0  0  0  0  0  0  0  0  0  0  0  0
  -26.2151   16.4150   31.0094 N   0  0  0  0  0  0  0  0  0  0  0  0
  -25.0749   16.0765   31.6083 C   0  0  0  0  0  0  0  0  0  0  0  0
  -24.6175   16.7899   32.2472 H   0  0  0  0  0  0  0  0  0  0  0  0
  -24.4853   14.8318   31.4122 C   0  0  0  0  0  0  0  0  0  0  0  0
  -23.5741   14.5991   31.9005 H   0  0  0  0  0  0  0  0  0  0  0  0
  -23.8357   12.8198   27.8881 C   0  0  0  0  0  0  0  0  0  0  0  0
  -24.8516   13.0224   27.6650 H   0  0  0  0  0  0  0  0  0  0  0  0
  -22.8991   12.8122   26.8600 C   0  0  0  0  0  0  0  0  0  0  0  0
  -23.2012   13.0098   25.8642 H   0  0  0  0  0  0  0  0  0  0  0  0
  1  2  2  0
  2  3  1  0
  2  8  1  0
  3  4  1  0
  4  5  1  0
  4  6  1  0
  4  7  1  0
  8  9  1  0
  8 10  1  0
 10 11  1  0
 10 31  2  0
 11 12  1  0
 11 13  2  0
 13 14  1  0
 13 15  1  0
 15 16  1  0
 15 29  2  0
 16 17  1  0
 16 18  1  0
 16 19  1  0
 19 20  1  0
 19 27  2  0
 20 21  1  0
 20 22  2  0
 22 23  1  0
 22 24  1  0
 24 25  2  0
 25 26  1  0
 25 27  1  0
 27 28  1  0
 29 30  1  0
 29 31  1  0
 31 32  1  0
M  END
$$$$
