F618_96
     RDKit          3D

 26 26  0  0  0  0  0  0  0  0999 V2000
  -22.1089   14.2883   29.2279 F   0  0  0  0  0  0  0  0  0  0  0  0
  -22.8842   13.7109   28.2969 C   0  0  0  0  0  0  0  0  0  0  0  0
  -22.3515   12.9029   27.2756 C   0  0  0  0  0  0  0  0  0  0  0  0
  -20.9778   12.6274   27.1852 N   0  0  0  0  0  0  0  0  0  0  0  0
  -20.4017   12.4411   25.8325 C   0  0  0  0  0  0  0  0  0  0  0  0
  -19.9105   10.9952   25.6329 C   0  0  0  0  0  0  0  0  0  0  0  0
  -19.8609   10.7521   24.5660 H   0  0  0  0  0  0  0  0  0  0  0  0
  -20.5837   10.2726   26.1044 H   0  0  0  0  0  0  0  0  0  0  0  0
  -18.6108   10.7988   26.1862 O   0  0  0  0  0  0  0  0  0  0  0  0
  -18.3441    9.9108   25.8875 H   0  0  0  0  0  0  0  0  0  0  0  0
  -19.2906   13.4527   25.5259 C   0  0  0  0  0  0  0  0  0  0  0  0
  -19.0230   13.4063   24.4641 H   0  0  0  0  0  0  0  0  0  0  0  0
  -18.3752   13.2583   26.0923 H   0  0  0  0  0  0  0  0  0  0  0  0
  -19.6189   14.4740   25.7428 H   0  0  0  0  0  0  0  0  0  0  0  0
  -20.1547   12.5379   28.3826 C   0  0  0  0  0  0  0  0  0  0  0  0
  -19.9488   13.5345   28.7866 H   0  0  0  0  0  0  0  0  0  0  0  0
  -19.1919   12.0547   28.1920 H   0  0  0  0  0  0  0  0  0  0  0  0
  -20.6371   11.9218   29.1509 H   0  0  0  0  0  0  0  0  0  0  0  0
  -23.1409   12.3462   26.3441 N   0  0  0  0  0  0  0  0  0  0  0  0
  -24.4573   12.5860   26.3917 C   0  0  0  0  0  0  0  0  0  0  0  0
  -25.0652   12.1427   25.6454 H   0  0  0  0  0  0  0  0  0  0  0  0
  -25.0395   13.3869   27.3761 C   0  0  0  0  0  0  0  0  0  0  0  0
  -26.0856   13.5499   27.3750 H   0  0  0  0  0  0  0  0  0  0  0  0
  -24.2407   13.9672   28.3581 C   0  0  0  0  0  0  0  0  0  0  0  0
  -24.6470   14.5779   29.1222 H   0  0  0  0  0  0  0  0  0  0  0  0
  -21.1716   12.6418   25.0753 H   0  0  0  0  0  0  0  0  0  0  0  0
  1  2  1  0
  2  3  1  0
  2 24  2  0
  3  4  1  0
  3 19  2  0
  4  5  1  0
  4 15  1  0
  5  6  1  0
  5 11  1  0
  5 26  1  0
  6  7  1  0
  6  8  1  0
  6  9  1  0
  9 10  1  0
 11 12  1  0
 11 13  1  0
 11 14  1  0
 15 16  1  0
 15 17  1  0
 15 18  1  0
 19 20  1  0
 20 21  1  0
 20 22  2  0
 22 23  1  0
 22 24  1  0
 24 25  1  0
M  END
$$$$
