F616_68
     RDKit          3D

 26 26  0  0  0  0  0  0  0  0999 V2000
  -19.9663   11.9995   26.5657 S   0  0  0  0  0  0  0  0  0  0  0  0
  -20.2228   13.0964   25.6581 O   0  0  0  0  0  0  0  0  0  0  0  0
  -19.8701   10.6330   26.0982 O   0  0  0  0  0  0  0  0  0  0  0  0
  -21.1263   12.0137   27.7871 N   0  0  0  0  0  0  0  0  0  0  0  0
  -20.7497   11.9567   28.7367 H   0  0  0  0  0  0  0  0  0  0  0  0
  -22.3632   12.7979   27.6100 C   0  0  0  0  0  0  0  0  0  0  0  0
  -22.2104   13.7771   28.0773 H   0  0  0  0  0  0  0  0  0  0  0  0
  -22.5803   12.9541   26.5477 H   0  0  0  0  0  0  0  0  0  0  0  0
  -23.5390   12.0974   28.2951 C   0  0  0  0  0  0  0  0  0  0  0  0
  -24.4521   12.7001   28.2044 H   0  0  0  0  0  0  0  0  0  0  0  0
  -23.7490   11.1561   27.7714 H   0  0  0  0  0  0  0  0  0  0  0  0
  -23.2774   11.7903   29.7534 C   0  0  0  0  0  0  0  0  0  0  0  0
  -22.9107   10.4966   30.1427 C   0  0  0  0  0  0  0  0  0  0  0  0
  -22.8283    9.7260   29.4211 H   0  0  0  0  0  0  0  0  0  0  0  0
  -22.6525   10.2140   31.4819 C   0  0  0  0  0  0  0  0  0  0  0  0
  -22.3746    9.2390   31.7886 H   0  0  0  0  0  0  0  0  0  0  0  0
  -22.7632   11.2352   32.4146 C   0  0  0  0  0  0  0  0  0  0  0  0
  -22.5148   10.9647   33.7041 F   0  0  0  0  0  0  0  0  0  0  0  0
  -23.1196   12.5270   32.0553 C   0  0  0  0  0  0  0  0  0  0  0  0
  -23.1889   13.2858   32.7898 H   0  0  0  0  0  0  0  0  0  0  0  0
  -23.3781   12.8014   30.7144 C   0  0  0  0  0  0  0  0  0  0  0  0
  -23.6437   13.7866   30.4244 H   0  0  0  0  0  0  0  0  0  0  0  0
  -18.4815   12.3641   27.4769 C   0  0  0  0  0  0  0  0  0  0  0  0
  -18.5544   13.3681   27.8988 H   0  0  0  0  0  0  0  0  0  0  0  0
  -17.6410   12.3190   26.7807 H   0  0  0  0  0  0  0  0  0  0  0  0
  -18.3533   11.6153   28.2603 H   0  0  0  0  0  0  0  0  0  0  0  0
  1  2  2  0
  1  3  2  0
  1  4  1  0
  1 23  1  0
  4  5  1  0
  4  6  1  0
  6  7  1  0
  6  8  1  0
  6  9  1  0
  9 10  1  0
  9 11  1  0
  9 12  1  0
 12 13  1  0
 12 21  2  0
 13 14  1  0
 13 15  2  0
 15 16  1  0
 15 17  1  0
 17 18  1  0
 17 19  2  0
 19 20  1  0
 19 21  1  0
 21 22  1  0
 23 24  1  0
 23 25  1  0
 23 26  1  0
M  END
$$$$
