F205_16
     RDKit          3D

 20 20  0  0  0  0  0  0  0  0999 V2000
  -16.5880   15.0016   24.8204 O   0  0  0  0  0  0  0  0  0  0  0  0
  -17.5422   14.2192   24.9975 C   0  0  0  0  0  0  0  0  0  0  0  0
  -18.1998   14.2180   26.2427 N   0  0  0  0  0  0  0  0  0  0  0  0
  -17.7499   15.1307   27.2892 C   0  0  0  0  0  0  0  0  0  0  0  0
  -18.5769   15.7861   27.5785 H   0  0  0  0  0  0  0  0  0  0  0  0
  -16.9199   15.7628   26.9611 H   0  0  0  0  0  0  0  0  0  0  0  0
  -17.4103   14.5494   28.1525 H   0  0  0  0  0  0  0  0  0  0  0  0
  -19.2786   13.3386   26.4905 C   0  0  0  0  0  0  0  0  0  0  0  0
  -19.9454   13.3398   27.8379 C   0  0  0  0  0  0  0  0  0  0  0  0
  -19.2304   13.0775   28.6246 H   0  0  0  0  0  0  0  0  0  0  0  0
  -20.7618   12.6113   27.8882 H   0  0  0  0  0  0  0  0  0  0  0  0
  -20.3755   14.3211   28.0593 H   0  0  0  0  0  0  0  0  0  0  0  0
  -19.7119   12.5061   25.4960 C   0  0  0  0  0  0  0  0  0  0  0  0
  -20.5239   11.8489   25.6734 H   0  0  0  0  0  0  0  0  0  0  0  0
  -19.0938   12.4866   24.2166 C   0  0  0  0  0  0  0  0  0  0  0  0
  -19.4474   11.8257   23.4681 H   0  0  0  0  0  0  0  0  0  0  0  0
  -18.0362   13.3110   23.9705 C   0  0  0  0  0  0  0  0  0  0  0  0
  -17.3821   13.3404   22.7638 N   0  0  0  0  0  0  0  0  0  0  0  0
  -17.6613   12.7438   21.9985 H   0  0  0  0  0  0  0  0  0  0  0  0
  -16.6039   13.9887   22.6687 H   0  0  0  0  0  0  0  0  0  0  0  0
  1  2  2  0
  2  3  1  0
  2 17  1  0
  3  4  1  0
  3  8  1  0
  4  5  1  0
  4  6  1  0
  4  7  1  0
  8  9  1  0
  8 13  2  0
  9 10  1  0
  9 11  1  0
  9 12  1  0
 13 14  1  0
 13 15  1  0
 15 16  1  0
 15 17  2  0
 17 18  1  0
 18 19  1  0
 18 20  1  0
M  END
$$$$
