F368_9
     RDKit          3D

 29 30  0  0  0  0  0  0  0  0999 V2000
  -15.2842   16.3562   27.4892 O   0  0  0  0  0  0  0  0  0  0  0  0
  -15.7032   16.8007   26.4370 C   0  0  0  0  0  0  0  0  0  0  0  0
  -16.7818   16.2354   25.8129 N   0  0  0  0  0  0  0  0  0  0  0  0
  -17.0527   16.6732   24.9247 H   0  0  0  0  0  0  0  0  0  0  0  0
  -17.5384   15.1499   26.2351 C   0  0  0  0  0  0  0  0  0  0  0  0
  -18.5077   14.5061   25.5525 C   0  0  0  0  0  0  0  0  0  0  0  0
  -18.9089   14.6539   24.5859 H   0  0  0  0  0  0  0  0  0  0  0  0
  -18.9341   13.5297   26.3918 N   0  0  0  0  0  0  0  0  0  0  0  0
  -19.9716   12.5501   26.1531 C   0  0  0  0  0  0  0  0  0  0  0  0
  -20.4078   12.7619   25.1701 H   0  0  0  0  0  0  0  0  0  0  0  0
  -19.4958   11.5647   26.1032 H   0  0  0  0  0  0  0  0  0  0  0  0
  -21.0384   12.5690   27.2328 C   0  0  0  0  0  0  0  0  0  0  0  0
  -21.8020   11.8130   27.0261 H   0  0  0  0  0  0  0  0  0  0  0  0
  -20.6060   12.3593   28.2164 H   0  0  0  0  0  0  0  0  0  0  0  0
  -21.5302   13.5459   27.2854 H   0  0  0  0  0  0  0  0  0  0  0  0
  -18.2581   13.5386   27.5789 N   0  0  0  0  0  0  0  0  0  0  0  0
  -17.4115   14.5299   27.4738 C   0  0  0  0  0  0  0  0  0  0  0  0
  -16.7336   14.8028   28.2404 H   0  0  0  0  0  0  0  0  0  0  0  0
  -15.0947   18.0185   25.6799 C   0  0  0  0  0  0  0  0  0  0  0  0
  -14.7681   17.7570   24.6618 H   0  0  0  0  0  0  0  0  0  0  0  0
  -15.9246   19.3319   25.6682 C   0  0  0  0  0  0  0  0  0  0  0  0
  -16.5832   19.4605   26.5341 H   0  0  0  0  0  0  0  0  0  0  0  0
  -16.4980   19.5201   24.7560 H   0  0  0  0  0  0  0  0  0  0  0  0
  -14.5943   20.0996   25.7819 C   0  0  0  0  0  0  0  0  0  0  0  0
  -14.6103   20.9884   26.4171 H   0  0  0  0  0  0  0  0  0  0  0  0
  -14.1514   20.3585   24.8133 H   0  0  0  0  0  0  0  0  0  0  0  0
  -13.9940   18.8310   26.4169 C   0  0  0  0  0  0  0  0  0  0  0  0
  -14.0693   18.8080   27.5106 H   0  0  0  0  0  0  0  0  0  0  0  0
  -12.9648   18.6036   26.1280 H   0  0  0  0  0  0  0  0  0  0  0  0
  1  2  2  0
  2  3  1  0
  2 19  1  0
  3  4  1  0
  3  5  1  0
  5  6  2  0
  5 17  1  0
  6  7  1  0
  6  8  1  0
  8  9  1  0
  8 16  1  0
  9 10  1  0
  9 11  1  0
  9 12  1  0
 12 13  1  0
 12 14  1  0
 12 15  1  0
 16 17  2  0
 17 18  1  0
 19 20  1  0
 19 21  1  0
 19 27  1  0
 21 22  1  0
 21 23  1  0
 21 24  1  0
 24 25  1  0
 24 26  1  0
 24 27  1  0
 27 28  1  0
 27 29  1  0
M  END
$$$$
