F199_28
     RDKit          3D

 25 26  0  0  0  0  0  0  0  0999 V2000
  -17.0987   15.0697   24.7884 O   0  0  0  0  0  0  0  0  0  0  0  0
  -17.0125   15.2849   25.9956 C   0  0  0  0  0  0  0  0  0  0  0  0
  -17.8945   14.6701   26.8506 N   0  0  0  0  0  0  0  0  0  0  0  0
  -17.7470   14.9090   27.8412 H   0  0  0  0  0  0  0  0  0  0  0  0
  -18.9194   13.7998   26.5255 C   0  0  0  0  0  0  0  0  0  0  0  0
  -19.7232   13.2605   27.4645 C   0  0  0  0  0  0  0  0  0  0  0  0
  -19.7515   13.3637   28.5163 H   0  0  0  0  0  0  0  0  0  0  0  0
  -20.5874   12.4773   26.7727 N   0  0  0  0  0  0  0  0  0  0  0  0
  -21.6602   11.6698   27.2932 C   0  0  0  0  0  0  0  0  0  0  0  0
  -21.6851   11.7546   28.3821 H   0  0  0  0  0  0  0  0  0  0  0  0
  -21.4828   10.6311   27.0035 H   0  0  0  0  0  0  0  0  0  0  0  0
  -22.6006   12.0310   26.8694 H   0  0  0  0  0  0  0  0  0  0  0  0
  -20.3534   12.5066   25.4336 N   0  0  0  0  0  0  0  0  0  0  0  0
  -19.3343   13.3157   25.2854 C   0  0  0  0  0  0  0  0  0  0  0  0
  -18.9044   13.5527   24.3468 H   0  0  0  0  0  0  0  0  0  0  0  0
  -16.0327   16.1554   26.6134 C   0  0  0  0  0  0  0  0  0  0  0  0
  -15.8413   16.1866   27.9087 N   0  0  0  0  0  0  0  0  0  0  0  0
  -14.8854   17.0808   28.1436 O   0  0  0  0  0  0  0  0  0  0  0  0
  -14.4614   17.6262   26.9992 C   0  0  0  0  0  0  0  0  0  0  0  0
  -13.3994   18.6403   27.0915 C   0  0  0  0  0  0  0  0  0  0  0  0
  -13.1352   19.0249   26.1018 H   0  0  0  0  0  0  0  0  0  0  0  0
  -12.4988   18.2119   27.5419 H   0  0  0  0  0  0  0  0  0  0  0  0
  -13.7250   19.4832   27.7081 H   0  0  0  0  0  0  0  0  0  0  0  0
  -15.1656   17.0664   26.0072 C   0  0  0  0  0  0  0  0  0  0  0  0
  -15.0828   17.2701   24.9712 H   0  0  0  0  0  0  0  0  0  0  0  0
  1  2  2  0
  2  3  1  0
  2 16  1  0
  3  4  1  0
  3  5  1  0
  5  6  2  0
  5 14  1  0
  6  7  1  0
  6  8  1  0
  8  9  1  0
  8 13  1  0
  9 10  1  0
  9 11  1  0
  9 12  1  0
 13 14  2  0
 14 15  1  0
 16 17  2  0
 16 24  1  0
 17 18  1  0
 18 19  1  0
 19 20  1  0
 19 24  2  0
 20 21  1  0
 20 22  1  0
 20 23  1  0
 24 25  1  0
M  END
$$$$
