F389_1
     RDKit          3D

 18 18  0  0  0  0  0  0  0  0999 V2000
  -23.5872   13.8768   29.8497 O   0  0  0  0  0  0  0  0  0  0  0  0
  -23.8464   12.8053   29.3211 C   0  0  0  0  0  0  0  0  0  0  0  0
  -23.6411   11.5835   29.8973 O   0  0  0  0  0  0  0  0  0  0  0  0
  -23.1916   11.5903   31.2613 C   0  0  0  0  0  0  0  0  0  0  0  0
  -23.9277   12.1603   31.8380 H   0  0  0  0  0  0  0  0  0  0  0  0
  -22.2316   12.1092   31.3606 H   0  0  0  0  0  0  0  0  0  0  0  0
  -23.1144   10.1718   31.7916 C   0  0  0  0  0  0  0  0  0  0  0  0
  -22.3836    9.5816   31.2296 H   0  0  0  0  0  0  0  0  0  0  0  0
  -24.0801    9.6673   31.6837 H   0  0  0  0  0  0  0  0  0  0  0  0
  -22.8300   10.1673   32.8476 H   0  0  0  0  0  0  0  0  0  0  0  0
  -24.4119   12.7049   27.9880 C   0  0  0  0  0  0  0  0  0  0  0  0
  -24.4305   11.6096   27.1756 C   0  0  0  0  0  0  0  0  0  0  0  0
  -24.0603   10.6261   27.3117 H   0  0  0  0  0  0  0  0  0  0  0  0
  -25.0554   11.9960   26.0512 N   0  0  0  0  0  0  0  0  0  0  0  0
  -25.2327   11.3889   25.2268 H   0  0  0  0  0  0  0  0  0  0  0  0
  -25.4424   13.2997   26.1035 N   0  0  0  0  0  0  0  0  0  0  0  0
  -25.0505   13.7196   27.2735 C   0  0  0  0  0  0  0  0  0  0  0  0
  -25.2065   14.7098   27.6216 H   0  0  0  0  0  0  0  0  0  0  0  0
  1  2  2  0
  2  3  1  0
  2 11  1  0
  3  4  1  0
  4  5  1  0
  4  6  1  0
  4  7  1  0
  7  8  1  0
  7  9  1  0
  7 10  1  0
 11 12  2  0
 11 17  1  0
 12 13  1  0
 12 14  1  0
 14 15  1  0
 14 16  1  0
 16 17  2  0
 17 18  1  0
M  END
$$$$
