F600_56
     RDKit          3D

 16 16  0  0  0  0  0  0  0  0999 V2000
  -22.0196   11.9656   27.1969 O   0  0  0  0  0  0  0  0  0  0  0  0
  -21.2747   12.8193   28.0655 C   0  0  0  0  0  0  0  0  0  0  0  0
  -21.9543   13.5237   28.5607 H   0  0  0  0  0  0  0  0  0  0  0  0
  -20.7635   12.2243   28.8308 H   0  0  0  0  0  0  0  0  0  0  0  0
  -20.2909   13.5663   27.2308 C   0  0  0  0  0  0  0  0  0  0  0  0
  -19.5932   12.8521   25.8389 S   0  0  0  0  0  0  0  0  0  0  0  0
  -18.7275   14.3047   25.6545 C   0  0  0  0  0  0  0  0  0  0  0  0
  -17.8760   14.4606   24.6268 N   0  0  0  0  0  0  0  0  0  0  0  0
  -17.7228   13.7360   23.9367 H   0  0  0  0  0  0  0  0  0  0  0  0
  -17.3602   15.3255   24.5178 H   0  0  0  0  0  0  0  0  0  0  0  0
  -18.9457   15.2115   26.5547 N   0  0  0  0  0  0  0  0  0  0  0  0
  -19.8681   14.7691   27.4801 N   0  0  0  0  0  0  0  0  0  0  0  0
  -23.0228   11.2487   27.9023 C   0  0  0  0  0  0  0  0  0  0  0  0
  -23.5580   10.6145   27.1900 H   0  0  0  0  0  0  0  0  0  0  0  0
  -23.7373   11.9392   28.3602 H   0  0  0  0  0  0  0  0  0  0  0  0
  -22.5711   10.6100   28.6674 H   0  0  0  0  0  0  0  0  0  0  0  0
  1  2  1  0
  1 13  1  0
  2  3  1  0
  2  4  1  0
  2  5  1  0
  5  6  1  0
  5 12  2  0
  6  7  1  0
  7  8  1  0
  7 11  2  0
  8  9  1  0
  8 10  1  0
 11 12  1  0
 13 14  1  0
 13 15  1  0
 13 16  1  0
M  END
$$$$
