F579_55
     RDKit          3D

 29 31  0  0  0  0  0  0  0  0999 V2000
  -18.8766   13.1116   27.3101 O   0  0  0  0  0  0  0  0  0  0  0  0
  -19.5148   13.1043   26.2814 C   0  0  0  0  0  0  0  0  0  0  0  0
  -20.8612   12.9020   26.2743 N   0  0  0  0  0  0  0  0  0  0  0  0
  -21.3163   12.8896   25.3577 H   0  0  0  0  0  0  0  0  0  0  0  0
  -21.7280   12.7003   27.3227 C   0  0  0  0  0  0  0  0  0  0  0  0
  -21.1687   12.2510   28.9047 S   0  0  0  0  0  0  0  0  0  0  0  0
  -22.8165   12.2541   29.4299 C   0  0  0  0  0  0  0  0  0  0  0  0
  -23.6455   12.5950   28.3621 C   0  0  0  0  0  0  0  0  0  0  0  0
  -23.0044   12.8495   27.1560 N   0  0  0  0  0  0  0  0  0  0  0  0
  -25.0330   12.6576   28.5729 C   0  0  0  0  0  0  0  0  0  0  0  0
  -25.6673   12.9149   27.7657 H   0  0  0  0  0  0  0  0  0  0  0  0
  -25.5576   12.3821   29.8275 C   0  0  0  0  0  0  0  0  0  0  0  0
  -26.6037   12.4308   29.9823 H   0  0  0  0  0  0  0  0  0  0  0  0
  -24.6930   12.0404   30.8916 C   0  0  0  0  0  0  0  0  0  0  0  0
  -25.0949   11.7501   32.1716 O   0  0  0  0  0  0  0  0  0  0  0  0
  -25.0006   12.7909   33.1372 C   0  0  0  0  0  0  0  0  0  0  0  0
  -25.6440   13.6360   32.8702 H   0  0  0  0  0  0  0  0  0  0  0  0
  -25.3548   12.3932   34.0931 H   0  0  0  0  0  0  0  0  0  0  0  0
  -23.9621   13.1099   33.2741 H   0  0  0  0  0  0  0  0  0  0  0  0
  -23.3244   11.9733   30.7055 C   0  0  0  0  0  0  0  0  0  0  0  0
  -22.6789   11.7153   31.5040 H   0  0  0  0  0  0  0  0  0  0  0  0
  -18.8893   13.3321   24.9603 C   0  0  0  0  0  0  0  0  0  0  0  0
  -19.0691   12.5285   24.2513 H   0  0  0  0  0  0  0  0  0  0  0  0
  -17.5869   14.0869   24.8349 C   0  0  0  0  0  0  0  0  0  0  0  0
  -17.1209   14.4960   25.7243 H   0  0  0  0  0  0  0  0  0  0  0  0
  -16.8846   13.7618   24.0770 H   0  0  0  0  0  0  0  0  0  0  0  0
  -18.8653   14.7236   24.3756 C   0  0  0  0  0  0  0  0  0  0  0  0
  -19.0303   14.8268   23.3100 H   0  0  0  0  0  0  0  0  0  0  0  0
  -19.2703   15.5380   24.9672 H   0  0  0  0  0  0  0  0  0  0  0  0
  1  2  2  0
  2  3  1  0
  2 22  1  0
  3  4  1  0
  3  5  1  0
  5  6  1  0
  5  9  2  0
  6  7  1  0
  7  8  1  0
  7 20  2  0
  8  9  1  0
  8 10  2  0
 10 11  1  0
 10 12  1  0
 12 13  1  0
 12 14  2  0
 14 15  1  0
 14 20  1  0
 15 16  1  0
 16 17  1  0
 16 18  1  0
 16 19  1  0
 20 21  1  0
 22 23  1  0
 22 24  1  0
 22 27  1  0
 24 25  1  0
 24 26  1  0
 24 27  1  0
 27 28  1  0
 27 29  1  0
M  END
$$$$
