F275_18
     RDKit          3D

 20 20  0  0  0  0  0  0  0  0999 V2000
  -23.2266   11.6676   27.6138 S   0  0  0  0  0  0  0  0  0  0  0  0
  -23.0783   10.4305   28.3453 O   0  0  0  0  0  0  0  0  0  0  0  0
  -24.0033   11.7521   26.3960 O   0  0  0  0  0  0  0  0  0  0  0  0
  -21.6745   12.2177   27.2508 N   0  0  0  0  0  0  0  0  0  0  0  0
  -21.0335   12.1174   28.0411 H   0  0  0  0  0  0  0  0  0  0  0  0
  -21.3181   11.8255   26.3755 H   0  0  0  0  0  0  0  0  0  0  0  0
  -23.7907   12.9125   28.7235 C   0  0  0  0  0  0  0  0  0  0  0  0
  -23.5514   12.7972   30.0961 C   0  0  0  0  0  0  0  0  0  0  0  0
  -23.0494   11.9507   30.4880 H   0  0  0  0  0  0  0  0  0  0  0  0
  -23.9769   13.8115   30.9405 C   0  0  0  0  0  0  0  0  0  0  0  0
  -23.7478   13.6936   32.2565 F   0  0  0  0  0  0  0  0  0  0  0  0
  -24.6247   14.9456   30.4745 C   0  0  0  0  0  0  0  0  0  0  0  0
  -24.9303   15.6989   31.1542 H   0  0  0  0  0  0  0  0  0  0  0  0
  -24.8573   15.0740   29.1071 C   0  0  0  0  0  0  0  0  0  0  0  0
  -25.5124   16.3097   28.5628 C   0  0  0  0  0  0  0  0  0  0  0  0
  -26.2048   16.7406   29.2937 H   0  0  0  0  0  0  0  0  0  0  0  0
  -26.0924   16.0797   27.6631 H   0  0  0  0  0  0  0  0  0  0  0  0
  -24.7531   17.0561   28.3121 H   0  0  0  0  0  0  0  0  0  0  0  0
  -24.4334   14.0613   28.2417 C   0  0  0  0  0  0  0  0  0  0  0  0
  -24.5939   14.1602   27.1965 H   0  0  0  0  0  0  0  0  0  0  0  0
  1  2  2  0
  1  3  2  0
  1  4  1  0
  1  7  1  0
  4  5  1  0
  4  6  1  0
  7  8  1  0
  7 19  2  0
  8  9  1  0
  8 10  2  0
 10 11  1  0
 10 12  1  0
 12 13  1  0
 12 14  2  0
 14 15  1  0
 14 19  1  0
 15 16  1  0
 15 17  1  0
 15 18  1  0
 19 20  1  0
M  END
$$$$
