F229_87
     RDKit          3D

 27 28  0  0  0  0  0  0  0  0999 V2000
  -19.5152   16.8474   27.1321 F   0  0  0  0  0  0  0  0  0  0  0  0
  -18.4820   17.6188   26.7576 C   0  0  0  0  0  0  0  0  0  0  0  0
  -17.3555   17.0603   26.1209 C   0  0  0  0  0  0  0  0  0  0  0  0
  -17.2248   15.7082   25.8309 N   0  0  0  0  0  0  0  0  0  0  0  0
  -16.3407   15.2521   26.0229 H   0  0  0  0  0  0  0  0  0  0  0  0
  -18.2798   14.8811   25.2717 C   0  0  0  0  0  0  0  0  0  0  0  0
  -19.2337   15.4195   25.3316 H   0  0  0  0  0  0  0  0  0  0  0  0
  -18.0789   14.6957   24.2097 H   0  0  0  0  0  0  0  0  0  0  0  0
  -18.4430   13.5563   25.9522 C   0  0  0  0  0  0  0  0  0  0  0  0
  -18.9871   12.3957   25.4056 C   0  0  0  0  0  0  0  0  0  0  0  0
  -19.5371   12.1851   24.0449 C   0  0  0  0  0  0  0  0  0  0  0  0
  -18.8130   12.4975   23.2850 H   0  0  0  0  0  0  0  0  0  0  0  0
  -20.4524   12.7708   23.9096 H   0  0  0  0  0  0  0  0  0  0  0  0
  -19.7790   11.1326   23.8637 H   0  0  0  0  0  0  0  0  0  0  0  0
  -18.9687   11.4204   26.2699 N   0  0  0  0  0  0  0  0  0  0  0  0
  -18.4054   11.9479   27.3843 N   0  0  0  0  0  0  0  0  0  0  0  0
  -18.2561   11.3989   28.2516 H   0  0  0  0  0  0  0  0  0  0  0  0
  -18.0738   13.2442   27.2162 C   0  0  0  0  0  0  0  0  0  0  0  0
  -17.6184   13.8181   27.9799 H   0  0  0  0  0  0  0  0  0  0  0  0
  -16.3135   17.9097   25.7443 C   0  0  0  0  0  0  0  0  0  0  0  0
  -15.4644   17.5144   25.2516 H   0  0  0  0  0  0  0  0  0  0  0  0
  -16.3923   19.2748   26.0157 C   0  0  0  0  0  0  0  0  0  0  0  0
  -15.5963   19.9150   25.7303 H   0  0  0  0  0  0  0  0  0  0  0  0
  -17.5104   19.8113   26.6584 C   0  0  0  0  0  0  0  0  0  0  0  0
  -17.5589   20.8513   26.8591 H   0  0  0  0  0  0  0  0  0  0  0  0
  -18.5629   18.9772   27.0297 C   0  0  0  0  0  0  0  0  0  0  0  0
  -19.4201   19.3726   27.5122 H   0  0  0  0  0  0  0  0  0  0  0  0
  1  2  1  0
  2  3  1  0
  2 26  2  0
  3  4  1  0
  3 20  2  0
  4  5  1  0
  4  6  1  0
  6  7  1  0
  6  8  1  0
  6  9  1  0
  9 10  1  0
  9 18  2  0
 10 11  1  0
 10 15  2  0
 11 12  1  0
 11 13  1  0
 11 14  1  0
 15 16  1  0
 16 17  1  0
 16 18  1  0
 18 19  1  0
 20 21  1  0
 20 22  1  0
 22 23  1  0
 22 24  2  0
 24 25  1  0
 24 26  1  0
 26 27  1  0
M  END
$$$$
