F374_43
     RDKit          3D

 18 18  0  0  0  0  0  0  0  0999 V2000
  -19.2888   16.2089   27.3567 O   0  0  0  0  0  0  0  0  0  0  0  0
  -18.5661   15.3945   26.7850 C   0  0  0  0  0  0  0  0  0  0  0  0
  -17.3440   15.8336   26.3546 N   0  0  0  0  0  0  0  0  0  0  0  0
  -16.7240   15.1276   25.9330 H   0  0  0  0  0  0  0  0  0  0  0  0
  -16.8959   17.2040   26.4859 C   0  0  0  0  0  0  0  0  0  0  0  0
  -17.4712   17.8226   25.7881 H   0  0  0  0  0  0  0  0  0  0  0  0
  -17.1263   17.5383   27.5025 H   0  0  0  0  0  0  0  0  0  0  0  0
  -15.4112   17.3361   26.2086 C   0  0  0  0  0  0  0  0  0  0  0  0
  -15.0939   18.3778   26.3143 H   0  0  0  0  0  0  0  0  0  0  0  0
  -14.8273   16.7262   26.9058 H   0  0  0  0  0  0  0  0  0  0  0  0
  -15.1725   17.0038   25.1929 H   0  0  0  0  0  0  0  0  0  0  0  0
  -18.8756   14.0062   26.5470 C   0  0  0  0  0  0  0  0  0  0  0  0
  -19.7383   13.2859   27.3214 N   0  0  0  0  0  0  0  0  0  0  0  0
  -19.7889   12.0720   26.8333 N   0  0  0  0  0  0  0  0  0  0  0  0
  -18.9744   12.0237   25.7685 N   0  0  0  0  0  0  0  0  0  0  0  0
  -18.8365   11.1673   25.2000 H   0  0  0  0  0  0  0  0  0  0  0  0
  -18.3974   13.2001   25.5672 C   0  0  0  0  0  0  0  0  0  0  0  0
  -17.7160   13.3868   24.7777 H   0  0  0  0  0  0  0  0  0  0  0  0
  1  2  2  0
  2  3  1  0
  2 12  1  0
  3  4  1  0
  3  5  1  0
  5  6  1  0
  5  7  1  0
  5  8  1  0
  8  9  1  0
  8 10  1  0
  8 11  1  0
 12 13  1  0
 12 17  2  0
 13 14  2  0
 14 15  1  0
 15 16  1  0
 15 17  1  0
 17 18  1  0
M  END
$$$$
