F616_15
     RDKit          3D

 26 26  0  0  0  0  0  0  0  0999 V2000
  -18.7552   12.7886   26.0047 S   0  0  0  0  0  0  0  0  0  0  0  0
  -18.2542   11.4479   26.2155 O   0  0  0  0  0  0  0  0  0  0  0  0
  -18.2048   13.9254   26.7117 O   0  0  0  0  0  0  0  0  0  0  0  0
  -20.4170   12.8043   26.2804 N   0  0  0  0  0  0  0  0  0  0  0  0
  -20.9631   12.2205   25.6419 H   0  0  0  0  0  0  0  0  0  0  0  0
  -20.9271   12.9368   27.6583 C   0  0  0  0  0  0  0  0  0  0  0  0
  -20.3762   12.2314   28.2902 H   0  0  0  0  0  0  0  0  0  0  0  0
  -20.7580   13.9481   28.0440 H   0  0  0  0  0  0  0  0  0  0  0  0
  -22.4173   12.5913   27.7086 C   0  0  0  0  0  0  0  0  0  0  0  0
  -22.9968   13.2968   27.0991 H   0  0  0  0  0  0  0  0  0  0  0  0
  -22.5716   11.6052   27.2523 H   0  0  0  0  0  0  0  0  0  0  0  0
  -22.9717   12.5638   29.1162 C   0  0  0  0  0  0  0  0  0  0  0  0
  -22.9492   11.3752   29.8555 C   0  0  0  0  0  0  0  0  0  0  0  0
  -22.5572   10.4891   29.4285 H   0  0  0  0  0  0  0  0  0  0  0  0
  -23.4430   11.3499   31.1576 C   0  0  0  0  0  0  0  0  0  0  0  0
  -23.4317   10.4566   31.7268 H   0  0  0  0  0  0  0  0  0  0  0  0
  -23.9516   12.5198   31.7032 C   0  0  0  0  0  0  0  0  0  0  0  0
  -24.4273   12.4970   32.9565 F   0  0  0  0  0  0  0  0  0  0  0  0
  -23.9811   13.7123   30.9947 C   0  0  0  0  0  0  0  0  0  0  0  0
  -24.3695   14.5896   31.4414 H   0  0  0  0  0  0  0  0  0  0  0  0
  -23.4872   13.7292   29.6924 C   0  0  0  0  0  0  0  0  0  0  0  0
  -23.4959   14.6359   29.1419 H   0  0  0  0  0  0  0  0  0  0  0  0
  -18.6772   13.1465   24.2630 C   0  0  0  0  0  0  0  0  0  0  0  0
  -19.1468   12.3338   23.7061 H   0  0  0  0  0  0  0  0  0  0  0  0
  -17.6242   13.2224   23.9829 H   0  0  0  0  0  0  0  0  0  0  0  0
  -19.1796   14.0965   24.0734 H   0  0  0  0  0  0  0  0  0  0  0  0
  1  2  2  0
  1  3  2  0
  1  4  1  0
  1 23  1  0
  4  5  1  0
  4  6  1  0
  6  7  1  0
  6  8  1  0
  6  9  1  0
  9 10  1  0
  9 11  1  0
  9 12  1  0
 12 13  1  0
 12 21  2  0
 13 14  1  0
 13 15  2  0
 15 16  1  0
 15 17  1  0
 17 18  1  0
 17 19  2  0
 19 20  1  0
 19 21  1  0
 21 22  1  0
 23 24  1  0
 23 25  1  0
 23 26  1  0
M  END
$$$$
