F666_58
     RDKit          3D

 35 37  0  0  0  0  0  0  0  0999 V2000
  -14.7511   19.5012   25.4228 F   0  0  0  0  0  0  0  0  0  0  0  0
  -15.6363   18.5013   25.5399 C   0  0  0  0  0  0  0  0  0  0  0  0
  -15.1697   17.1936   25.5868 C   0  0  0  0  0  0  0  0  0  0  0  0
  -14.1305   16.9984   25.5312 H   0  0  0  0  0  0  0  0  0  0  0  0
  -16.0875   16.1543   25.7070 C   0  0  0  0  0  0  0  0  0  0  0  0
  -15.7365   15.1603   25.7432 H   0  0  0  0  0  0  0  0  0  0  0  0
  -17.4641   16.4363   25.7683 C   0  0  0  0  0  0  0  0  0  0  0  0
  -18.3859   15.4020   25.8706 N   0  0  0  0  0  0  0  0  0  0  0  0
  -19.3694   15.3212   26.9609 C   0  0  0  0  0  0  0  0  0  0  0  0
  -19.2396   16.0997   27.7193 H   0  0  0  0  0  0  0  0  0  0  0  0
  -20.3663   15.4743   26.5290 H   0  0  0  0  0  0  0  0  0  0  0  0
  -19.3162   13.9373   27.6275 C   0  0  0  0  0  0  0  0  0  0  0  0
  -20.1024   13.8614   28.3822 H   0  0  0  0  0  0  0  0  0  0  0  0
  -18.3560   13.8046   28.1396 H   0  0  0  0  0  0  0  0  0  0  0  0
  -19.4187   12.8650   26.6284 N   0  0  0  0  0  0  0  0  0  0  0  0
  -20.3405   11.8453   26.6615 C   0  0  0  0  0  0  0  0  0  0  0  0
  -20.3176   11.0064   25.7798 O   0  0  0  0  0  0  0  0  0  0  0  0
  -21.3285   11.7885   27.7622 C   0  0  0  0  0  0  0  0  0  0  0  0
  -20.8990   11.9332   28.7488 H   0  0  0  0  0  0  0  0  0  0  0  0
  -22.4808   10.8110   27.6966 C   0  0  0  0  0  0  0  0  0  0  0  0
  -22.5706   10.1803   26.8192 H   0  0  0  0  0  0  0  0  0  0  0  0
  -22.7929   10.3348   28.6180 H   0  0  0  0  0  0  0  0  0  0  0  0
  -22.7404   12.2779   27.5371 C   0  0  0  0  0  0  0  0  0  0  0  0
  -23.0157   12.6338   26.5502 H   0  0  0  0  0  0  0  0  0  0  0  0
  -23.2323   12.7978   28.3505 H   0  0  0  0  0  0  0  0  0  0  0  0
  -18.4267   12.9557   25.5495 C   0  0  0  0  0  0  0  0  0  0  0  0
  -17.4452   12.7912   26.0088 H   0  0  0  0  0  0  0  0  0  0  0  0
  -18.5738   12.1709   24.8009 H   0  0  0  0  0  0  0  0  0  0  0  0
  -18.4600   14.3322   24.8625 C   0  0  0  0  0  0  0  0  0  0  0  0
  -19.3915   14.4455   24.2957 H   0  0  0  0  0  0  0  0  0  0  0  0
  -17.6284   14.3692   24.1502 H   0  0  0  0  0  0  0  0  0  0  0  0
  -17.9061   17.7692   25.7403 C   0  0  0  0  0  0  0  0  0  0  0  0
  -18.9364   17.9895   25.8332 H   0  0  0  0  0  0  0  0  0  0  0  0
  -16.9878   18.8076   25.6171 C   0  0  0  0  0  0  0  0  0  0  0  0
  -17.3070   19.8162   25.5916 H   0  0  0  0  0  0  0  0  0  0  0  0
  1  2  1  0
  2  3  1  0
  2 34  2  0
  3  4  1  0
  3  5  2  0
  5  6  1  0
  5  7  1  0
  7  8  1  0
  7 32  2  0
  8  9  1  0
  8 29  1  0
  9 10  1  0
  9 11  1  0
  9 12  1  0
 12 13  1  0
 12 14  1  0
 12 15  1  0
 15 16  1  0
 15 26  1  0
 16 17  2  0
 16 18  1  0
 18 19  1  0
 18 20  1  0
 18 23  1  0
 20 21  1  0
 20 22  1  0
 20 23  1  0
 23 24  1  0
 23 25  1  0
 26 27  1  0
 26 28  1  0
 26 29  1  0
 29 30  1  0
 29 31  1  0
 32 33  1  0
 32 34  1  0
 34 35  1  0
M  END
$$$$
