F488_63
     RDKit          3D

 39 40  0  0  0  0  0  0  0  0999 V2000
  -16.3481   15.1206   24.9091 O   0  0  0  0  0  0  0  0  0  0  0  0
  -17.2605   15.3666   25.6917 C   0  0  0  0  0  0  0  0  0  0  0  0
  -18.4990   14.4734   25.7452 C   0  0  0  0  0  0  0  0  0  0  0  0
  -19.3721   15.1228   25.6092 H   0  0  0  0  0  0  0  0  0  0  0  0
  -18.5081   13.7889   24.8882 H   0  0  0  0  0  0  0  0  0  0  0  0
  -18.6798   13.7660   26.9606 O   0  0  0  0  0  0  0  0  0  0  0  0
  -19.8952   13.1821   27.2123 C   0  0  0  0  0  0  0  0  0  0  0  0
  -20.9753   13.7930   27.8481 C   0  0  0  0  0  0  0  0  0  0  0  0
  -20.9123   14.7901   28.1979 H   0  0  0  0  0  0  0  0  0  0  0  0
  -22.1546   13.0770   28.0286 C   0  0  0  0  0  0  0  0  0  0  0  0
  -22.9806   13.5398   28.5065 H   0  0  0  0  0  0  0  0  0  0  0  0
  -22.2555   11.7570   27.5882 C   0  0  0  0  0  0  0  0  0  0  0  0
  -23.5421   10.9998   27.7564 C   0  0  0  0  0  0  0  0  0  0  0  0
  -24.1786   11.1479   26.8785 H   0  0  0  0  0  0  0  0  0  0  0  0
  -23.3528    9.9292   27.8810 H   0  0  0  0  0  0  0  0  0  0  0  0
  -24.0820   11.3396   28.6460 H   0  0  0  0  0  0  0  0  0  0  0  0
  -21.1632   11.1540   26.9627 C   0  0  0  0  0  0  0  0  0  0  0  0
  -21.2299   10.1506   26.6304 H   0  0  0  0  0  0  0  0  0  0  0  0
  -19.9808   11.8637   26.7776 C   0  0  0  0  0  0  0  0  0  0  0  0
  -19.1472   11.4055   26.3112 H   0  0  0  0  0  0  0  0  0  0  0  0
  -17.1621   16.4581   26.4942 N   0  0  0  0  0  0  0  0  0  0  0  0
  -15.9103   17.2273   26.5434 C   0  0  0  0  0  0  0  0  0  0  0  0
  -15.4710   17.0495   27.5334 H   0  0  0  0  0  0  0  0  0  0  0  0
  -15.1864   16.8716   25.8042 H   0  0  0  0  0  0  0  0  0  0  0  0
  -16.1478   18.7255   26.3377 C   0  0  0  0  0  0  0  0  0  0  0  0
  -16.5430   18.9380   25.3388 H   0  0  0  0  0  0  0  0  0  0  0  0
  -15.2271   19.2921   26.5047 H   0  0  0  0  0  0  0  0  0  0  0  0
  -17.1755   19.2214   27.3433 N   0  0  0  0  0  0  0  0  0  0  0  0
  -16.7989   19.0431   28.2853 H   0  0  0  0  0  0  0  0  0  0  0  0
  -17.3897   20.7034   27.2383 C   0  0  0  0  0  0  0  0  0  0  0  0
  -18.0927   21.0000   28.0212 H   0  0  0  0  0  0  0  0  0  0  0  0
  -16.4263   21.1964   27.3954 H   0  0  0  0  0  0  0  0  0  0  0  0
  -17.7889   20.9304   26.2466 H   0  0  0  0  0  0  0  0  0  0  0  0
  -18.4778   18.4502   27.2155 C   0  0  0  0  0  0  0  0  0  0  0  0
  -18.8882   18.6728   26.2247 H   0  0  0  0  0  0  0  0  0  0  0  0
  -19.1570   18.8195   27.9900 H   0  0  0  0  0  0  0  0  0  0  0  0
  -18.2244   16.9446   27.3852 C   0  0  0  0  0  0  0  0  0  0  0  0
  -19.1661   16.4203   27.2153 H   0  0  0  0  0  0  0  0  0  0  0  0
  -17.9039   16.7293   28.4120 H   0  0  0  0  0  0  0  0  0  0  0  0
  1  2  2  0
  2  3  1  0
  2 21  1  0
  3  4  1  0
  3  5  1  0
  3  6  1  0
  6  7  1  0
  7  8  1  0
  7 19  2  0
  8  9  1  0
  8 10  2  0
 10 11  1  0
 10 12  1  0
 12 13  1  0
 12 17  2  0
 13 14  1  0
 13 15  1  0
 13 16  1  0
 17 18  1  0
 17 19  1  0
 19 20  1  0
 21 22  1  0
 21 37  1  0
 22 23  1  0
 22 24  1  0
 22 25  1  0
 25 26  1  0
 25 27  1  0
 25 28  1  0
 28 29  1  0
 28 30  1  0
 28 34  1  0
 30 31  1  0
 30 32  1  0
 30 33  1  0
 34 35  1  0
 34 36  1  0
 34 37  1  0
 37 38  1  0
 37 39  1  0
M  END
$$$$
