F501_99
     RDKit          3D

 23 24  0  0  0  0  0  0  0  0999 V2000
  -16.9259   13.1970   23.2344 C   0  0  0  0  0  0  0  0  0  0  0  0
  -17.9704   12.8986   23.1124 H   0  0  0  0  0  0  0  0  0  0  0  0
  -16.3226   12.3368   23.5335 H   0  0  0  0  0  0  0  0  0  0  0  0
  -16.5558   13.6129   22.2944 H   0  0  0  0  0  0  0  0  0  0  0  0
  -16.8222   14.2000   24.2589 N   0  0  0  0  0  0  0  0  0  0  0  0
  -15.7058   14.9364   24.3597 N   0  0  0  0  0  0  0  0  0  0  0  0
  -15.8571   15.7580   25.3713 N   0  0  0  0  0  0  0  0  0  0  0  0
  -17.0800   15.5252   25.8909 C   0  0  0  0  0  0  0  0  0  0  0  0
  -17.7004   14.5574   25.1973 C   0  0  0  0  0  0  0  0  0  0  0  0
  -19.0687   14.0295   25.4387 C   0  0  0  0  0  0  0  0  0  0  0  0
  -19.7295   14.4297   24.6590 H   0  0  0  0  0  0  0  0  0  0  0  0
  -19.0842   12.9399   25.3389 H   0  0  0  0  0  0  0  0  0  0  0  0
  -19.5888   14.5043   26.8176 C   0  0  0  0  0  0  0  0  0  0  0  0
  -19.2022   13.5101   27.9172 C   0  0  0  0  0  0  0  0  0  0  0  0
  -20.1274   13.0594   28.6288 O   0  0  0  0  0  0  0  0  0  0  0  0
  -17.9900   13.2436   28.0638 O   0  0  0  0  0  0  0  0  0  0  0  0
  -19.1845   15.9699   27.1243 C   0  0  0  0  0  0  0  0  0  0  0  0
  -19.6717   16.6179   26.3826 H   0  0  0  0  0  0  0  0  0  0  0  0
  -19.5632   16.2848   28.1039 H   0  0  0  0  0  0  0  0  0  0  0  0
  -17.6600   16.2141   27.0644 C   0  0  0  0  0  0  0  0  0  0  0  0
  -17.1802   15.8383   27.9751 H   0  0  0  0  0  0  0  0  0  0  0  0
  -17.4627   17.2910   27.0126 H   0  0  0  0  0  0  0  0  0  0  0  0
  -20.6864   14.4638   26.7881 H   0  0  0  0  0  0  0  0  0  0  0  0
  1  2  1  0
  1  3  1  0
  1  4  1  0
  1  5  1  0
  5  6  1  0
  5  9  1  0
  6  7  2  0
  7  8  1  0
  8  9  2  0
  8 20  1  0
  9 10  1  0
 10 11  1  0
 10 12  1  0
 10 13  1  0
 13 14  1  0
 13 17  1  0
 13 23  1  0
 14 15  1  0
 14 16  2  0
 17 18  1  0
 17 19  1  0
 17 20  1  0
 20 21  1  0
 20 22  1  0
M  END
$$$$
