F367_41
     RDKit          3D

 31 32  0  0  0  0  0  0  0  0999 V2000
  -21.3006   12.9173   28.8180 O   0  0  0  0  0  0  0  0  0  0  0  0
  -22.0211   13.1078   27.8469 C   0  0  0  0  0  0  0  0  0  0  0  0
  -21.5339   12.7202   26.6346 N   0  0  0  0  0  0  0  0  0  0  0  0
  -22.1279   12.7658   25.7983 H   0  0  0  0  0  0  0  0  0  0  0  0
  -20.1911   12.1992   26.4752 C   0  0  0  0  0  0  0  0  0  0  0  0
  -20.2093   11.4211   25.7034 H   0  0  0  0  0  0  0  0  0  0  0  0
  -19.8812   11.7327   27.4172 H   0  0  0  0  0  0  0  0  0  0  0  0
  -19.2791   13.3097   26.0927 C   0  0  0  0  0  0  0  0  0  0  0  0
  -19.0826   14.4723   26.7582 C   0  0  0  0  0  0  0  0  0  0  0  0
  -19.4956   14.8480   27.6567 H   0  0  0  0  0  0  0  0  0  0  0  0
  -18.1797   15.1673   26.0310 N   0  0  0  0  0  0  0  0  0  0  0  0
  -17.6293   16.4777   26.3068 C   0  0  0  0  0  0  0  0  0  0  0  0
  -17.8959   17.1344   25.4713 H   0  0  0  0  0  0  0  0  0  0  0  0
  -18.1231   16.8614   27.2057 H   0  0  0  0  0  0  0  0  0  0  0  0
  -16.1229   16.4417   26.4907 C   0  0  0  0  0  0  0  0  0  0  0  0
  -15.6264   16.0536   25.5947 H   0  0  0  0  0  0  0  0  0  0  0  0
  -15.8422   15.7989   27.3316 H   0  0  0  0  0  0  0  0  0  0  0  0
  -15.7397   17.4476   26.6868 H   0  0  0  0  0  0  0  0  0  0  0  0
  -17.7937   14.4825   24.9249 N   0  0  0  0  0  0  0  0  0  0  0  0
  -18.4642   13.3640   24.9687 C   0  0  0  0  0  0  0  0  0  0  0  0
  -18.3758   12.6066   24.2312 H   0  0  0  0  0  0  0  0  0  0  0  0
  -23.3761   13.6822   27.9530 C   0  0  0  0  0  0  0  0  0  0  0  0
  -24.3011   13.3791   26.9458 C   0  0  0  0  0  0  0  0  0  0  0  0
  -24.0115   12.7546   26.1371 H   0  0  0  0  0  0  0  0  0  0  0  0
  -25.5492   13.8512   26.9548 N   0  0  0  0  0  0  0  0  0  0  0  0
  -25.9513   14.6360   27.9523 C   0  0  0  0  0  0  0  0  0  0  0  0
  -26.9495   14.9956   27.9313 H   0  0  0  0  0  0  0  0  0  0  0  0
  -25.0994   14.9801   28.9985 C   0  0  0  0  0  0  0  0  0  0  0  0
  -25.4492   15.6015   29.7809 H   0  0  0  0  0  0  0  0  0  0  0  0
  -23.7956   14.5014   29.0088 C   0  0  0  0  0  0  0  0  0  0  0  0
  -23.1451   14.7503   29.8063 H   0  0  0  0  0  0  0  0  0  0  0  0
  1  2  2  0
  2  3  1  0
  2 22  1  0
  3  4  1  0
  3  5  1  0
  5  6  1  0
  5  7  1  0
  5  8  1  0
  8  9  2  0
  8 20  1  0
  9 10  1  0
  9 11  1  0
 11 12  1  0
 11 19  1  0
 12 13  1  0
 12 14  1  0
 12 15  1  0
 15 16  1  0
 15 17  1  0
 15 18  1  0
 19 20  2  0
 20 21  1  0
 22 23  1  0
 22 30  2  0
 23 24  1  0
 23 25  2  0
 25 26  1  0
 26 27  1  0
 26 28  2  0
 28 29  1  0
 28 30  1  0
 30 31  1  0
M  END
$$$$
