F618_64
     RDKit          3D

 26 26  0  0  0  0  0  0  0  0999 V2000
  -23.2798   15.9430   29.3473 F   0  0  0  0  0  0  0  0  0  0  0  0
  -23.6036   15.2206   30.4311 C   0  0  0  0  0  0  0  0  0  0  0  0
  -24.1914   13.9461   30.3327 C   0  0  0  0  0  0  0  0  0  0  0  0
  -24.4488   13.3392   29.0930 N   0  0  0  0  0  0  0  0  0  0  0  0
  -23.5858   12.2032   28.6916 C   0  0  0  0  0  0  0  0  0  0  0  0
  -23.2185   11.3294   29.9053 C   0  0  0  0  0  0  0  0  0  0  0  0
  -24.1208   11.0378   30.4536 H   0  0  0  0  0  0  0  0  0  0  0  0
  -22.5670   11.8638   30.6037 H   0  0  0  0  0  0  0  0  0  0  0  0
  -22.5427   10.1370   29.5113 O   0  0  0  0  0  0  0  0  0  0  0  0
  -23.1626    9.6857   28.9106 H   0  0  0  0  0  0  0  0  0  0  0  0
  -22.3319   12.6601   27.9360 C   0  0  0  0  0  0  0  0  0  0  0  0
  -21.8219   11.7951   27.4971 H   0  0  0  0  0  0  0  0  0  0  0  0
  -21.6070   13.1598   28.5852 H   0  0  0  0  0  0  0  0  0  0  0  0
  -22.5917   13.3429   27.1211 H   0  0  0  0  0  0  0  0  0  0  0  0
  -25.5322   13.8105   28.2425 C   0  0  0  0  0  0  0  0  0  0  0  0
  -26.5011   13.4780   28.6293 H   0  0  0  0  0  0  0  0  0  0  0  0
  -25.4451   13.4453   27.2150 H   0  0  0  0  0  0  0  0  0  0  0  0
  -25.5249   14.9039   28.1594 H   0  0  0  0  0  0  0  0  0  0  0  0
  -24.5225   13.2448   31.4279 N   0  0  0  0  0  0  0  0  0  0  0  0
  -24.2968   13.7882   32.6305 C   0  0  0  0  0  0  0  0  0  0  0  0
  -24.5690   13.2228   33.4845 H   0  0  0  0  0  0  0  0  0  0  0  0
  -23.7251   15.0523   32.7880 C   0  0  0  0  0  0  0  0  0  0  0  0
  -23.5652   15.4432   33.7588 H   0  0  0  0  0  0  0  0  0  0  0  0
  -23.3653   15.7939   31.6657 C   0  0  0  0  0  0  0  0  0  0  0  0
  -22.9267   16.7546   31.7460 H   0  0  0  0  0  0  0  0  0  0  0  0
  -24.1236   11.5704   27.9726 H   0  0  0  0  0  0  0  0  0  0  0  0
  1  2  1  0
  2  3  1  0
  2 24  2  0
  3  4  1  0
  3 19  2  0
  4  5  1  0
  4 15  1  0
  5  6  1  0
  5 11  1  0
  5 26  1  0
  6  7  1  0
  6  8  1  0
  6  9  1  0
  9 10  1  0
 11 12  1  0
 11 13  1  0
 11 14  1  0
 15 16  1  0
 15 17  1  0
 15 18  1  0
 19 20  1  0
 20 21  1  0
 20 22  2  0
 22 23  1  0
 22 24  1  0
 24 25  1  0
M  END
$$$$
