F600_87
     RDKit          3D

 16 16  0  0  0  0  0  0  0  0999 V2000
  -21.2472   11.8336   27.6573 O   0  0  0  0  0  0  0  0  0  0  0  0
  -20.2113   12.7414   28.0327 C   0  0  0  0  0  0  0  0  0  0  0  0
  -20.6413   13.5763   28.5995 H   0  0  0  0  0  0  0  0  0  0  0  0
  -19.4728   12.2308   28.6613 H   0  0  0  0  0  0  0  0  0  0  0  0
  -19.5804   13.2500   26.7814 C   0  0  0  0  0  0  0  0  0  0  0  0
  -18.7436   12.1942   25.7234 S   0  0  0  0  0  0  0  0  0  0  0  0
  -18.4356   13.5656   24.7655 C   0  0  0  0  0  0  0  0  0  0  0  0
  -17.7355   13.4519   23.6242 N   0  0  0  0  0  0  0  0  0  0  0  0
  -17.3750   12.5644   23.2971 H   0  0  0  0  0  0  0  0  0  0  0  0
  -17.5519   14.2690   23.0543 H   0  0  0  0  0  0  0  0  0  0  0  0
  -18.9103   14.6860   25.2123 N   0  0  0  0  0  0  0  0  0  0  0  0
  -19.5835   14.4920   26.4005 N   0  0  0  0  0  0  0  0  0  0  0  0
  -22.4481   12.5175   27.3285 C   0  0  0  0  0  0  0  0  0  0  0  0
  -23.2020   11.7755   27.0507 H   0  0  0  0  0  0  0  0  0  0  0  0
  -22.2876   13.1870   26.4783 H   0  0  0  0  0  0  0  0  0  0  0  0
  -22.8156   13.0825   28.1904 H   0  0  0  0  0  0  0  0  0  0  0  0
  1  2  1  0
  1 13  1  0
  2  3  1  0
  2  4  1  0
  2  5  1  0
  5  6  1  0
  5 12  2  0
  6  7  1  0
  7  8  1  0
  7 11  2  0
  8  9  1  0
  8 10  1  0
 11 12  1  0
 13 14  1  0
 13 15  1  0
 13 16  1  0
M  END
$$$$
