F199_60
     RDKit          3D

 25 26  0  0  0  0  0  0  0  0999 V2000
  -21.4677   11.4124   27.2501 O   0  0  0  0  0  0  0  0  0  0  0  0
  -21.0797   12.5453   27.5277 C   0  0  0  0  0  0  0  0  0  0  0  0
  -21.9470   13.4210   28.1342 N   0  0  0  0  0  0  0  0  0  0  0  0
  -21.5356   14.3446   28.3288 H   0  0  0  0  0  0  0  0  0  0  0  0
  -23.2638   13.1945   28.4924 C   0  0  0  0  0  0  0  0  0  0  0  0
  -24.0133   14.1409   29.0935 C   0  0  0  0  0  0  0  0  0  0  0  0
  -23.7979   15.1333   29.3878 H   0  0  0  0  0  0  0  0  0  0  0  0
  -25.2224   13.5571   29.2828 N   0  0  0  0  0  0  0  0  0  0  0  0
  -26.3965   14.1304   29.8884 C   0  0  0  0  0  0  0  0  0  0  0  0
  -26.1778   15.1502   30.2139 H   0  0  0  0  0  0  0  0  0  0  0  0
  -26.6770   13.5163   30.7478 H   0  0  0  0  0  0  0  0  0  0  0  0
  -27.1981   14.1398   29.1456 H   0  0  0  0  0  0  0  0  0  0  0  0
  -25.2570   12.2783   28.8220 N   0  0  0  0  0  0  0  0  0  0  0  0
  -24.0594   12.0597   28.3392 C   0  0  0  0  0  0  0  0  0  0  0  0
  -23.7617   11.1430   27.8998 H   0  0  0  0  0  0  0  0  0  0  0  0
  -19.7481   13.0520   27.2640 C   0  0  0  0  0  0  0  0  0  0  0  0
  -18.7100   12.2630   27.1412 N   0  0  0  0  0  0  0  0  0  0  0  0
  -17.6537   13.0364   26.9071 O   0  0  0  0  0  0  0  0  0  0  0  0
  -18.0116   14.3241   26.8797 C   0  0  0  0  0  0  0  0  0  0  0  0
  -16.9494   15.3112   26.6303 C   0  0  0  0  0  0  0  0  0  0  0  0
  -17.3492   16.3298   26.6372 H   0  0  0  0  0  0  0  0  0  0  0  0
  -16.4837   15.1348   25.6559 H   0  0  0  0  0  0  0  0  0  0  0  0
  -16.1744   15.2448   27.3993 H   0  0  0  0  0  0  0  0  0  0  0  0
  -19.3311   14.3747   27.1031 C   0  0  0  0  0  0  0  0  0  0  0  0
  -19.9385   15.2411   27.1477 H   0  0  0  0  0  0  0  0  0  0  0  0
  1  2  2  0
  2  3  1  0
  2 16  1  0
  3  4  1  0
  3  5  1  0
  5  6  2  0
  5 14  1  0
  6  7  1  0
  6  8  1  0
  8  9  1  0
  8 13  1  0
  9 10  1  0
  9 11  1  0
  9 12  1  0
 13 14  2  0
 14 15  1  0
 16 17  2  0
 16 24  1  0
 17 18  1  0
 18 19  1  0
 19 20  1  0
 19 24  2  0
 20 21  1  0
 20 22  1  0
 20 23  1  0
 24 25  1  0
M  END
$$$$
