F503_16
     RDKit          3D

 29 30  0  0  0  0  0  0  0  0999 V2000
  -23.5561   10.8619   29.9935 F   0  0  0  0  0  0  0  0  0  0  0  0
  -23.3998   11.6127   31.0945 C   0  0  0  0  0  0  0  0  0  0  0  0
  -24.2049   12.7390   31.2791 C   0  0  0  0  0  0  0  0  0  0  0  0
  -25.2594   13.1241   30.2724 C   0  0  0  0  0  0  0  0  0  0  0  0
  -26.1391   13.5349   30.7844 H   0  0  0  0  0  0  0  0  0  0  0  0
  -25.6172   12.2051   29.7886 H   0  0  0  0  0  0  0  0  0  0  0  0
  -24.7734   14.1138   29.2187 C   0  0  0  0  0  0  0  0  0  0  0  0
  -23.7855   13.5842   28.2283 C   0  0  0  0  0  0  0  0  0  0  0  0
  -24.0455   13.3919   27.0578 O   0  0  0  0  0  0  0  0  0  0  0  0
  -22.5465   13.2950   28.6966 N   0  0  0  0  0  0  0  0  0  0  0  0
  -22.3784   13.4186   29.6852 H   0  0  0  0  0  0  0  0  0  0  0  0
  -21.4807   12.8076   27.8584 C   0  0  0  0  0  0  0  0  0  0  0  0
  -21.7519   11.8209   27.4738 H   0  0  0  0  0  0  0  0  0  0  0  0
  -21.3298   13.4959   27.0231 H   0  0  0  0  0  0  0  0  0  0  0  0
  -20.5683   12.7387   28.4560 H   0  0  0  0  0  0  0  0  0  0  0  0
  -24.7242   15.6167   29.5098 C   0  0  0  0  0  0  0  0  0  0  0  0
  -23.9599   16.2104   29.0165 H   0  0  0  0  0  0  0  0  0  0  0  0
  -24.9862   15.9924   30.4913 H   0  0  0  0  0  0  0  0  0  0  0  0
  -25.8292   15.0748   28.6676 C   0  0  0  0  0  0  0  0  0  0  0  0
  -25.8178   15.2993   27.6065 H   0  0  0  0  0  0  0  0  0  0  0  0
  -26.8258   15.0608   29.0943 H   0  0  0  0  0  0  0  0  0  0  0  0
  -24.0059   13.5028   32.4297 C   0  0  0  0  0  0  0  0  0  0  0  0
  -24.5941   14.3670   32.6041 H   0  0  0  0  0  0  0  0  0  0  0  0
  -23.0298   13.1394   33.3583 C   0  0  0  0  0  0  0  0  0  0  0  0
  -22.8873   13.7282   34.2303 H   0  0  0  0  0  0  0  0  0  0  0  0
  -22.2399   12.0090   33.1518 C   0  0  0  0  0  0  0  0  0  0  0  0
  -21.5002   11.7400   33.8629 H   0  0  0  0  0  0  0  0  0  0  0  0
  -22.4243   11.2368   32.0096 C   0  0  0  0  0  0  0  0  0  0  0  0
  -21.8340   10.3753   31.8342 H   0  0  0  0  0  0  0  0  0  0  0  0
  1  2  1  0
  2  3  1  0
  2 28  2  0
  3  4  1  0
  3 22  2  0
  4  5  1  0
  4  6  1  0
  4  7  1  0
  7  8  1  0
  7 16  1  0
  7 19  1  0
  8  9  2  0
  8 10  1  0
 10 11  1  0
 10 12  1  0
 12 13  1  0
 12 14  1  0
 12 15  1  0
 16 17  1  0
 16 18  1  0
 16 19  1  0
 19 20  1  0
 19 21  1  0
 22 23  1  0
 22 24  1  0
 24 25  1  0
 24 26  2  0
 26 27  1  0
 26 28  1  0
 28 29  1  0
M  END
$$$$
