F96_5
     RDKit          3D

 19 19  0  0  0  0  0  0  0  0999 V2000
  -16.0301   15.7716   27.6802 O   0  0  0  0  0  0  0  0  0  0  0  0
  -16.0783   16.3677   26.6137 C   0  0  0  0  0  0  0  0  0  0  0  0
  -17.1543   16.3452   25.8399 N   0  0  0  0  0  0  0  0  0  0  0  0
  -17.1570   16.8373   24.9631 H   0  0  0  0  0  0  0  0  0  0  0  0
  -18.3513   15.6195   26.2085 C   0  0  0  0  0  0  0  0  0  0  0  0
  -18.3207   15.4226   27.2856 H   0  0  0  0  0  0  0  0  0  0  0  0
  -19.2232   16.2508   26.0058 H   0  0  0  0  0  0  0  0  0  0  0  0
  -18.4071   14.3537   25.4310 C   0  0  0  0  0  0  0  0  0  0  0  0
  -18.1977   14.1997   24.1023 C   0  0  0  0  0  0  0  0  0  0  0  0
  -17.9597   14.8966   23.3403 H   0  0  0  0  0  0  0  0  0  0  0  0
  -18.3515   12.8807   23.8574 N   0  0  0  0  0  0  0  0  0  0  0  0
  -18.2532   12.4283   22.9293 H   0  0  0  0  0  0  0  0  0  0  0  0
  -18.6602   12.1882   24.9846 N   0  0  0  0  0  0  0  0  0  0  0  0
  -18.6896   13.0863   25.9304 C   0  0  0  0  0  0  0  0  0  0  0  0
  -18.9080   12.8559   26.9432 H   0  0  0  0  0  0  0  0  0  0  0  0
  -14.9099   17.1490   26.0801 C   0  0  0  0  0  0  0  0  0  0  0  0
  -15.2400   17.9400   25.4009 H   0  0  0  0  0  0  0  0  0  0  0  0
  -14.2416   16.4713   25.5437 H   0  0  0  0  0  0  0  0  0  0  0  0
  -14.3715   17.6102   26.9128 H   0  0  0  0  0  0  0  0  0  0  0  0
  1  2  2  0
  2  3  1  0
  2 16  1  0
  3  4  1  0
  3  5  1  0
  5  6  1  0
  5  7  1  0
  5  8  1  0
  8  9  2  0
  8 14  1  0
  9 10  1  0
  9 11  1  0
 11 12  1  0
 11 13  1  0
 13 14  2  0
 14 15  1  0
 16 17  1  0
 16 18  1  0
 16 19  1  0
M  END
$$$$
