F5_9
     RDKit          3D

 21 21  0  0  0  0  0  0  0  0999 V2000
  -22.4903    9.9265   32.9775 Br  0  0  0  0  0  0  0  0  0  0  0  0
  -22.7904   10.8626   31.3606 C   0  0  0  0  0  0  0  0  0  0  0  0
  -22.9711   12.2413   31.3763 C   0  0  0  0  0  0  0  0  0  0  0  0
  -22.9455   12.7786   32.2859 H   0  0  0  0  0  0  0  0  0  0  0  0
  -23.1945   12.9174   30.1806 C   0  0  0  0  0  0  0  0  0  0  0  0
  -23.3874   14.2723   30.2532 O   0  0  0  0  0  0  0  0  0  0  0  0
  -24.7396   14.7313   30.4939 C   0  0  0  0  0  0  0  0  0  0  0  0
  -24.7643   15.8087   30.3392 H   0  0  0  0  0  0  0  0  0  0  0  0
  -25.0077   14.4783   31.5186 H   0  0  0  0  0  0  0  0  0  0  0  0
  -25.4128   14.2342   29.7962 H   0  0  0  0  0  0  0  0  0  0  0  0
  -23.2248   12.2406   28.9533 C   0  0  0  0  0  0  0  0  0  0  0  0
  -23.4280   12.9556   27.6171 C   0  0  0  0  0  0  0  0  0  0  0  0
  -22.7240   12.5637   26.8996 H   0  0  0  0  0  0  0  0  0  0  0  0
  -23.3458   14.0240   27.7268 H   0  0  0  0  0  0  0  0  0  0  0  0
  -24.8161   12.6479   27.1023 C   0  0  0  0  0  0  0  0  0  0  0  0
  -25.6529   12.2133   27.9258 O   0  0  0  0  0  0  0  0  0  0  0  0
  -25.0325   12.7958   25.8788 O   0  0  0  0  0  0  0  0  0  0  0  0
  -23.0492   10.8578   28.9583 C   0  0  0  0  0  0  0  0  0  0  0  0
  -23.0900   10.3252   28.0400 H   0  0  0  0  0  0  0  0  0  0  0  0
  -22.8337   10.1713   30.1508 C   0  0  0  0  0  0  0  0  0  0  0  0
  -22.7063    9.1204   30.1363 H   0  0  0  0  0  0  0  0  0  0  0  0
  1  2  1  0
  2  3  1  0
  2 20  2  0
  3  4  1  0
  3  5  2  0
  5  6  1  0
  5 11  1  0
  6  7  1  0
  7  8  1  0
  7  9  1  0
  7 10  1  0
 11 12  1  0
 11 18  2  0
 12 13  1  0
 12 14  1  0
 12 15  1  0
 15 16  1  0
 15 17  2  0
 18 19  1  0
 18 20  1  0
 20 21  1  0
M  END
$$$$
