F217_4
     RDKit          3D

 28 29  0  0  0  0  0  0  0  0999 V2000
  -19.5695   12.5722   28.3573 O   0  0  0  0  0  0  0  0  0  0  0  0
  -20.5741   12.3271   27.7100 C   0  0  0  0  0  0  0  0  0  0  0  0
  -20.4850   11.5650   26.6383 N   0  0  0  0  0  0  0  0  0  0  0  0
  -19.5684   11.2191   26.4071 H   0  0  0  0  0  0  0  0  0  0  0  0
  -21.2936   11.3488   26.0822 H   0  0  0  0  0  0  0  0  0  0  0  0
  -21.9496   12.8381   28.0475 C   0  0  0  0  0  0  0  0  0  0  0  0
  -21.8773   13.4787   28.9333 H   0  0  0  0  0  0  0  0  0  0  0  0
  -22.2977   13.4633   27.2165 H   0  0  0  0  0  0  0  0  0  0  0  0
  -22.9137   11.6859   28.2968 C   0  0  0  0  0  0  0  0  0  0  0  0
  -22.3816   10.7912   28.6378 H   0  0  0  0  0  0  0  0  0  0  0  0
  -23.4409   11.4006   27.3781 H   0  0  0  0  0  0  0  0  0  0  0  0
  -23.9152   12.0307   29.2882 N   0  0  0  0  0  0  0  0  0  0  0  0
  -24.0086   11.5446   30.5719 C   0  0  0  0  0  0  0  0  0  0  0  0
  -23.0608   10.5498   31.1403 C   0  0  0  0  0  0  0  0  0  0  0  0
  -23.2713   10.3848   32.2012 H   0  0  0  0  0  0  0  0  0  0  0  0
  -22.0282   10.8991   31.0536 H   0  0  0  0  0  0  0  0  0  0  0  0
  -23.1565    9.5891   30.6253 H   0  0  0  0  0  0  0  0  0  0  0  0
  -25.0089   12.0583   31.2069 N   0  0  0  0  0  0  0  0  0  0  0  0
  -25.6124   12.9210   30.3190 C   0  0  0  0  0  0  0  0  0  0  0  0
  -24.9400   12.9126   29.1138 C   0  0  0  0  0  0  0  0  0  0  0  0
  -25.3313   13.6970   28.0188 C   0  0  0  0  0  0  0  0  0  0  0  0
  -24.7999   13.6687   27.1027 H   0  0  0  0  0  0  0  0  0  0  0  0
  -26.4420   14.5116   28.1763 C   0  0  0  0  0  0  0  0  0  0  0  0
  -26.7710   15.1199   27.3747 H   0  0  0  0  0  0  0  0  0  0  0  0
  -27.1427   14.5366   29.4037 C   0  0  0  0  0  0  0  0  0  0  0  0
  -27.9909   15.1654   29.5073 H   0  0  0  0  0  0  0  0  0  0  0  0
  -26.7340   13.7475   30.4703 C   0  0  0  0  0  0  0  0  0  0  0  0
  -27.2521   13.7575   31.3918 H   0  0  0  0  0  0  0  0  0  0  0  0
  1  2  2  0
  2  3  1  0
  2  6  1  0
  3  4  1  0
  3  5  1  0
  6  7  1  0
  6  8  1  0
  6  9  1  0
  9 10  1  0
  9 11  1  0
  9 12  1  0
 12 13  1  0
 12 20  1  0
 13 14  1  0
 13 18  2  0
 14 15  1  0
 14 16  1  0
 14 17  1  0
 18 19  1  0
 19 20  1  0
 19 27  2  0
 20 21  2  0
 21 22  1  0
 21 23  1  0
 23 24  1  0
 23 25  2  0
 25 26  1  0
 25 27  1  0
 27 28  1  0
M  END
$$$$
