F501_97
     RDKit          3D

 23 24  0  0  0  0  0  0  0  0999 V2000
  -19.7775   12.3285   23.0100 C   0  0  0  0  0  0  0  0  0  0  0  0
  -20.7470   12.4183   23.5069 H   0  0  0  0  0  0  0  0  0  0  0  0
  -19.4074   11.3040   23.0922 H   0  0  0  0  0  0  0  0  0  0  0  0
  -19.8809   12.6127   21.9602 H   0  0  0  0  0  0  0  0  0  0  0  0
  -18.8257   13.2045   23.6369 N   0  0  0  0  0  0  0  0  0  0  0  0
  -17.6781   13.5002   23.0090 N   0  0  0  0  0  0  0  0  0  0  0  0
  -16.9869   14.2961   23.7901 N   0  0  0  0  0  0  0  0  0  0  0  0
  -17.7214   14.4930   24.9043 C   0  0  0  0  0  0  0  0  0  0  0  0
  -18.8813   13.8224   24.8180 C   0  0  0  0  0  0  0  0  0  0  0  0
  -19.9722   13.8013   25.8273 C   0  0  0  0  0  0  0  0  0  0  0  0
  -20.7924   14.4278   25.4538 H   0  0  0  0  0  0  0  0  0  0  0  0
  -20.3725   12.7891   25.9404 H   0  0  0  0  0  0  0  0  0  0  0  0
  -19.4711   14.3921   27.1678 C   0  0  0  0  0  0  0  0  0  0  0  0
  -18.8692   13.2972   28.0543 C   0  0  0  0  0  0  0  0  0  0  0  0
  -19.6564   12.6671   28.7951 O   0  0  0  0  0  0  0  0  0  0  0  0
  -17.6313   13.1293   28.0159 O   0  0  0  0  0  0  0  0  0  0  0  0
  -18.5399   15.6146   26.9586 C   0  0  0  0  0  0  0  0  0  0  0  0
  -19.1285   16.4114   26.4831 H   0  0  0  0  0  0  0  0  0  0  0  0
  -18.1979   16.0165   27.9196 H   0  0  0  0  0  0  0  0  0  0  0  0
  -17.3144   15.3107   26.0678 C   0  0  0  0  0  0  0  0  0  0  0  0
  -16.5551   14.7670   26.6412 H   0  0  0  0  0  0  0  0  0  0  0  0
  -16.8604   16.2512   25.7353 H   0  0  0  0  0  0  0  0  0  0  0  0
  -20.3519   14.7395   27.7251 H   0  0  0  0  0  0  0  0  0  0  0  0
  1  2  1  0
  1  3  1  0
  1  4  1  0
  1  5  1  0
  5  6  1  0
  5  9  1  0
  6  7  2  0
  7  8  1  0
  8  9  2  0
  8 20  1  0
  9 10  1  0
 10 11  1  0
 10 12  1  0
 10 13  1  0
 13 14  1  0
 13 17  1  0
 13 23  1  0
 14 15  1  0
 14 16  2  0
 17 18  1  0
 17 19  1  0
 17 20  1  0
 20 21  1  0
 20 22  1  0
M  END
$$$$
