F362_29
     RDKit          3D

 30 31  0  0  0  0  0  0  0  0999 V2000
  -23.4729   12.7577   29.0162 N   0  0  0  0  0  0  0  0  0  0  0  0
  -22.8503   11.7269   28.1634 C   0  0  0  0  0  0  0  0  0  0  0  0
  -22.8912   10.7384   28.6291 H   0  0  0  0  0  0  0  0  0  0  0  0
  -23.4299   11.6109   27.2388 H   0  0  0  0  0  0  0  0  0  0  0  0
  -21.4289   12.1178   27.7874 C   0  0  0  0  0  0  0  0  0  0  0  0
  -20.8018   12.2899   28.6662 H   0  0  0  0  0  0  0  0  0  0  0  0
  -21.4205   13.0394   27.1951 H   0  0  0  0  0  0  0  0  0  0  0  0
  -20.9654   11.3285   27.1865 H   0  0  0  0  0  0  0  0  0  0  0  0
  -24.1380   13.8262   28.2436 C   0  0  0  0  0  0  0  0  0  0  0  0
  -24.0346   14.7960   28.7421 H   0  0  0  0  0  0  0  0  0  0  0  0
  -23.6478   13.9526   27.2698 H   0  0  0  0  0  0  0  0  0  0  0  0
  -25.6064   13.4959   28.0149 C   0  0  0  0  0  0  0  0  0  0  0  0
  -26.1495   13.3997   28.9599 H   0  0  0  0  0  0  0  0  0  0  0  0
  -25.7177   12.5531   27.4705 H   0  0  0  0  0  0  0  0  0  0  0  0
  -26.0841   14.2864   27.4278 H   0  0  0  0  0  0  0  0  0  0  0  0
  -23.4446   12.7403   30.4559 C   0  0  0  0  0  0  0  0  0  0  0  0
  -24.2306   13.6544   31.2478 N   0  0  0  0  0  0  0  0  0  0  0  0
  -25.0839   14.6277   30.8599 N   0  0  0  0  0  0  0  0  0  0  0  0
  -25.4919   15.1100   31.9930 C   0  0  0  0  0  0  0  0  0  0  0  0
  -26.1887   15.9103   32.0464 H   0  0  0  0  0  0  0  0  0  0  0  0
  -24.9823   14.5395   33.0898 N   0  0  0  0  0  0  0  0  0  0  0  0
  -24.1884   13.6212   32.6197 C   0  0  0  0  0  0  0  0  0  0  0  0
  -23.4023   12.7282   33.3278 N   0  0  0  0  0  0  0  0  0  0  0  0
  -22.6800   11.8887   32.6601 C   0  0  0  0  0  0  0  0  0  0  0  0
  -21.8177   10.9076   33.4058 C   0  0  0  0  0  0  0  0  0  0  0  0
  -21.2567   10.2661   32.7223 H   0  0  0  0  0  0  0  0  0  0  0  0
  -22.4505   10.2812   34.0410 H   0  0  0  0  0  0  0  0  0  0  0  0
  -21.1115   11.4556   34.0369 H   0  0  0  0  0  0  0  0  0  0  0  0
  -22.6662   11.8513   31.1741 C   0  0  0  0  0  0  0  0  0  0  0  0
  -22.0526   11.1540   30.6762 H   0  0  0  0  0  0  0  0  0  0  0  0
  1  2  1  0
  1  9  1  0
  1 16  1  0
  2  3  1  0
  2  4  1  0
  2  5  1  0
  5  6  1  0
  5  7  1  0
  5  8  1  0
  9 10  1  0
  9 11  1  0
  9 12  1  0
 12 13  1  0
 12 14  1  0
 12 15  1  0
 16 17  1  0
 16 29  2  0
 17 18  1  0
 17 22  1  0
 18 19  2  0
 19 20  1  0
 19 21  1  0
 21 22  2  0
 22 23  1  0
 23 24  2  0
 24 25  1  0
 24 29  1  0
 25 26  1  0
 25 27  1  0
 25 28  1  0
 29 30  1  0
M  END
$$$$
