F503_94
     RDKit          3D

 29 30  0  0  0  0  0  0  0  0999 V2000
  -22.4489    9.9569   28.2417 F   0  0  0  0  0  0  0  0  0  0  0  0
  -22.5534   11.2078   28.7154 C   0  0  0  0  0  0  0  0  0  0  0  0
  -21.9282   12.2555   28.0354 C   0  0  0  0  0  0  0  0  0  0  0  0
  -21.1472   12.0139   26.7683 C   0  0  0  0  0  0  0  0  0  0  0  0
  -21.6612   12.4728   25.9139 H   0  0  0  0  0  0  0  0  0  0  0  0
  -21.1627   10.9352   26.5616 H   0  0  0  0  0  0  0  0  0  0  0  0
  -19.7076   12.5138   26.8268 C   0  0  0  0  0  0  0  0  0  0  0  0
  -19.4128   13.7558   26.0474 C   0  0  0  0  0  0  0  0  0  0  0  0
  -19.8230   14.8561   26.3571 O   0  0  0  0  0  0  0  0  0  0  0  0
  -18.6600   13.6108   24.9293 N   0  0  0  0  0  0  0  0  0  0  0  0
  -18.3774   12.6754   24.6724 H   0  0  0  0  0  0  0  0  0  0  0  0
  -18.2678   14.7174   24.0938 C   0  0  0  0  0  0  0  0  0  0  0  0
  -19.1607   15.1574   23.6420 H   0  0  0  0  0  0  0  0  0  0  0  0
  -17.7576   15.4696   24.7006 H   0  0  0  0  0  0  0  0  0  0  0  0
  -17.5972   14.3476   23.3142 H   0  0  0  0  0  0  0  0  0  0  0  0
  -18.5433   11.5440   27.0504 C   0  0  0  0  0  0  0  0  0  0  0  0
  -17.5818   11.7851   26.6063 H   0  0  0  0  0  0  0  0  0  0  0  0
  -18.7245   10.4783   27.1180 H   0  0  0  0  0  0  0  0  0  0  0  0
  -19.0126   12.3908   28.1848 C   0  0  0  0  0  0  0  0  0  0  0  0
  -18.3734   13.2038   28.5118 H   0  0  0  0  0  0  0  0  0  0  0  0
  -19.5329   11.8979   28.9981 H   0  0  0  0  0  0  0  0  0  0  0  0
  -22.0482   13.5412   28.5639 C   0  0  0  0  0  0  0  0  0  0  0  0
  -21.5851   14.3620   28.0793 H   0  0  0  0  0  0  0  0  0  0  0  0
  -22.7742   13.7579   29.7357 C   0  0  0  0  0  0  0  0  0  0  0  0
  -22.8587   14.7406   30.1287 H   0  0  0  0  0  0  0  0  0  0  0  0
  -23.3908   12.6952   30.3951 C   0  0  0  0  0  0  0  0  0  0  0  0
  -23.9409   12.8689   31.2853 H   0  0  0  0  0  0  0  0  0  0  0  0
  -23.2805   11.4068   29.8825 C   0  0  0  0  0  0  0  0  0  0  0  0
  -23.7407   10.5865   30.3691 H   0  0  0  0  0  0  0  0  0  0  0  0
  1  2  1  0
  2  3  1  0
  2 28  2  0
  3  4  1  0
  3 22  2  0
  4  5  1  0
  4  6  1  0
  4  7  1  0
  7  8  1  0
  7 16  1  0
  7 19  1  0
  8  9  2  0
  8 10  1  0
 10 11  1  0
 10 12  1  0
 12 13  1  0
 12 14  1  0
 12 15  1  0
 16 17  1  0
 16 18  1  0
 16 19  1  0
 19 20  1  0
 19 21  1  0
 22 23  1  0
 22 24  1  0
 24 25  1  0
 24 26  2  0
 26 27  1  0
 26 28  1  0
 28 29  1  0
M  END
$$$$
