F5_12
     RDKit          3D

 21 21  0  0  0  0  0  0  0  0999 V2000
  -22.4908    9.9498   33.0297 Br  0  0  0  0  0  0  0  0  0  0  0  0
  -22.7869   10.8752   31.4059 C   0  0  0  0  0  0  0  0  0  0  0  0
  -22.9657   12.2543   31.4120 C   0  0  0  0  0  0  0  0  0  0  0  0
  -22.9410   12.7977   32.3179 H   0  0  0  0  0  0  0  0  0  0  0  0
  -23.1862   12.9224   30.2112 C   0  0  0  0  0  0  0  0  0  0  0  0
  -23.3774   14.2781   30.2743 O   0  0  0  0  0  0  0  0  0  0  0  0
  -24.7255   14.7400   30.5316 C   0  0  0  0  0  0  0  0  0  0  0  0
  -24.7522   15.8160   30.3673 H   0  0  0  0  0  0  0  0  0  0  0  0
  -24.9779   14.4967   31.5626 H   0  0  0  0  0  0  0  0  0  0  0  0
  -25.4096   14.2369   29.8490 H   0  0  0  0  0  0  0  0  0  0  0  0
  -23.2153   12.2374   28.9886 C   0  0  0  0  0  0  0  0  0  0  0  0
  -23.4152   12.9434   27.6471 C   0  0  0  0  0  0  0  0  0  0  0  0
  -22.7236   12.5323   26.9284 H   0  0  0  0  0  0  0  0  0  0  0  0
  -23.3130   14.0112   27.7463 H   0  0  0  0  0  0  0  0  0  0  0  0
  -24.8123   12.6562   27.1451 C   0  0  0  0  0  0  0  0  0  0  0  0
  -25.6589   12.2735   27.9842 O   0  0  0  0  0  0  0  0  0  0  0  0
  -25.0272   12.7673   25.9175 O   0  0  0  0  0  0  0  0  0  0  0  0
  -23.0415   10.8544   29.0033 C   0  0  0  0  0  0  0  0  0  0  0  0
  -23.0814   10.3156   28.0886 H   0  0  0  0  0  0  0  0  0  0  0  0
  -22.8290   10.1757   30.2008 C   0  0  0  0  0  0  0  0  0  0  0  0
  -22.7030    9.1246   30.1937 H   0  0  0  0  0  0  0  0  0  0  0  0
  1  2  1  0
  2  3  1  0
  2 20  2  0
  3  4  1  0
  3  5  2  0
  5  6  1  0
  5 11  1  0
  6  7  1  0
  7  8  1  0
  7  9  1  0
  7 10  1  0
 11 12  1  0
 11 18  2  0
 12 13  1  0
 12 14  1  0
 12 15  1  0
 15 16  1  0
 15 17  2  0
 18 19  1  0
 18 20  1  0
 20 21  1  0
M  END
$$$$
