F503_30
     RDKit          3D

 29 30  0  0  0  0  0  0  0  0999 V2000
  -23.1559   11.2402   32.3180 F   0  0  0  0  0  0  0  0  0  0  0  0
  -23.1804   12.5732   32.1674 C   0  0  0  0  0  0  0  0  0  0  0  0
  -23.6355   13.1217   30.9662 C   0  0  0  0  0  0  0  0  0  0  0  0
  -24.1150   12.2469   29.8354 C   0  0  0  0  0  0  0  0  0  0  0  0
  -25.1766   12.0028   29.9700 H   0  0  0  0  0  0  0  0  0  0  0  0
  -23.5918   11.2837   29.9073 H   0  0  0  0  0  0  0  0  0  0  0  0
  -23.9021   12.8548   28.4530 C   0  0  0  0  0  0  0  0  0  0  0  0
  -22.4797   13.0139   28.0189 C   0  0  0  0  0  0  0  0  0  0  0  0
  -21.8324   14.0258   28.1971 O   0  0  0  0  0  0  0  0  0  0  0  0
  -21.9156   11.9609   27.3777 N   0  0  0  0  0  0  0  0  0  0  0  0
  -22.4968   11.1537   27.2007 H   0  0  0  0  0  0  0  0  0  0  0  0
  -20.5467   11.9530   26.9278 C   0  0  0  0  0  0  0  0  0  0  0  0
  -20.4219   12.7120   26.1511 H   0  0  0  0  0  0  0  0  0  0  0  0
  -19.8854   12.1787   27.7681 H   0  0  0  0  0  0  0  0  0  0  0  0
  -20.3158   10.9637   26.5251 H   0  0  0  0  0  0  0  0  0  0  0  0
  -24.9223   13.8264   27.8519 C   0  0  0  0  0  0  0  0  0  0  0  0
  -24.5614   14.5968   27.1765 H   0  0  0  0  0  0  0  0  0  0  0  0
  -25.7868   14.1361   28.4262 H   0  0  0  0  0  0  0  0  0  0  0  0
  -24.8907   12.4151   27.3706 C   0  0  0  0  0  0  0  0  0  0  0  0
  -24.5111   12.2260   26.3724 H   0  0  0  0  0  0  0  0  0  0  0  0
  -25.7187   11.7718   27.6459 H   0  0  0  0  0  0  0  0  0  0  0  0
  -23.6353   14.5113   30.8410 C   0  0  0  0  0  0  0  0  0  0  0  0
  -23.9694   14.9657   29.9437 H   0  0  0  0  0  0  0  0  0  0  0  0
  -23.1922   15.3149   31.8922 C   0  0  0  0  0  0  0  0  0  0  0  0
  -23.1966   16.3713   31.7856 H   0  0  0  0  0  0  0  0  0  0  0  0
  -22.7444   14.7429   33.0825 C   0  0  0  0  0  0  0  0  0  0  0  0
  -22.4094   15.3612   33.8766 H   0  0  0  0  0  0  0  0  0  0  0  0
  -22.7369   13.3591   33.2239 C   0  0  0  0  0  0  0  0  0  0  0  0
  -22.3997   12.9057   34.1194 H   0  0  0  0  0  0  0  0  0  0  0  0
  1  2  1  0
  2  3  1  0
  2 28  2  0
  3  4  1  0
  3 22  2  0
  4  5  1  0
  4  6  1  0
  4  7  1  0
  7  8  1  0
  7 16  1  0
  7 19  1  0
  8  9  2  0
  8 10  1  0
 10 11  1  0
 10 12  1  0
 12 13  1  0
 12 14  1  0
 12 15  1  0
 16 17  1  0
 16 18  1  0
 16 19  1  0
 19 20  1  0
 19 21  1  0
 22 23  1  0
 22 24  1  0
 24 25  1  0
 24 26  2  0
 26 27  1  0
 26 28  1  0
 28 29  1  0
M  END
$$$$
