F650_85
     RDKit          3D

 23 24  0  0  0  0  0  0  0  0999 V2000
  -19.5705   15.5431   27.4919 O   0  0  0  0  0  0  0  0  0  0  0  0
  -18.6695   15.3402   26.6839 C   0  0  0  0  0  0  0  0  0  0  0  0
  -17.6070   16.2292   26.6914 N   0  0  0  0  0  0  0  0  0  0  0  0
  -16.4714   16.2789   25.7770 C   0  0  0  0  0  0  0  0  0  0  0  0
  -15.9471   15.3236   25.7331 H   0  0  0  0  0  0  0  0  0  0  0  0
  -16.8504   16.5310   24.7810 H   0  0  0  0  0  0  0  0  0  0  0  0
  -15.5665   17.3725   26.3326 C   0  0  0  0  0  0  0  0  0  0  0  0
  -14.8584   16.9411   27.0509 H   0  0  0  0  0  0  0  0  0  0  0  0
  -14.9945   17.8813   25.5533 H   0  0  0  0  0  0  0  0  0  0  0  0
  -16.5359   18.2917   27.0595 C   0  0  0  0  0  0  0  0  0  0  0  0
  -17.0357   18.9485   26.3374 H   0  0  0  0  0  0  0  0  0  0  0  0
  -16.0505   18.9154   27.8151 H   0  0  0  0  0  0  0  0  0  0  0  0
  -17.5368   17.3169   27.6574 C   0  0  0  0  0  0  0  0  0  0  0  0
  -18.5169   17.7724   27.8244 H   0  0  0  0  0  0  0  0  0  0  0  0
  -17.1736   16.8988   28.6036 H   0  0  0  0  0  0  0  0  0  0  0  0
  -18.7259   14.2635   25.7139 C   0  0  0  0  0  0  0  0  0  0  0  0
  -18.6665   12.9417   26.0431 C   0  0  0  0  0  0  0  0  0  0  0  0
  -18.5936   12.4589   26.9833 H   0  0  0  0  0  0  0  0  0  0  0  0
  -18.7120   12.2680   24.8827 N   0  0  0  0  0  0  0  0  0  0  0  0
  -18.6840   11.2340   24.7936 H   0  0  0  0  0  0  0  0  0  0  0  0
  -18.7919   13.1013   23.8084 N   0  0  0  0  0  0  0  0  0  0  0  0
  -18.7900   14.2998   24.3186 C   0  0  0  0  0  0  0  0  0  0  0  0
  -18.8205   15.1791   23.7271 H   0  0  0  0  0  0  0  0  0  0  0  0
  1  2  2  0
  2  3  1  0
  2 16  1  0
  3  4  1  0
  3 13  1  0
  4  5  1  0
  4  6  1  0
  4  7  1  0
  7  8  1  0
  7  9  1  0
  7 10  1  0
 10 11  1  0
 10 12  1  0
 10 13  1  0
 13 14  1  0
 13 15  1  0
 16 17  2  0
 16 22  1  0
 17 18  1  0
 17 19  1  0
 19 20  1  0
 19 21  1  0
 21 22  2  0
 22 23  1  0
M  END
$$$$
