F366_96
     RDKit          3D

 22 22  0  0  0  0  0  0  0  0999 V2000
  -18.6370   13.5993   25.6684 O   0  0  0  0  0  0  0  0  0  0  0  0
  -18.1706   12.8008   25.3660 H   0  0  0  0  0  0  0  0  0  0  0  0
  -18.5014   13.6488   27.0859 C   0  0  0  0  0  0  0  0  0  0  0  0
  -17.4368   13.7063   27.3375 H   0  0  0  0  0  0  0  0  0  0  0  0
  -18.9966   14.5612   27.4333 H   0  0  0  0  0  0  0  0  0  0  0  0
  -19.1647   12.4275   27.7193 C   0  0  0  0  0  0  0  0  0  0  0  0
  -18.8174   11.5268   27.1983 H   0  0  0  0  0  0  0  0  0  0  0  0
  -18.8581   12.3365   28.7693 H   0  0  0  0  0  0  0  0  0  0  0  0
  -20.6589   12.4790   27.6566 C   0  0  0  0  0  0  0  0  0  0  0  0
  -21.5253   12.3472   28.6862 C   0  0  0  0  0  0  0  0  0  0  0  0
  -21.3688   12.1807   29.7195 H   0  0  0  0  0  0  0  0  0  0  0  0
  -22.7599   12.4685   28.1511 N   0  0  0  0  0  0  0  0  0  0  0  0
  -24.0349   12.4086   28.8323 C   0  0  0  0  0  0  0  0  0  0  0  0
  -24.0791   11.4586   29.3755 H   0  0  0  0  0  0  0  0  0  0  0  0
  -24.0570   13.2190   29.5689 H   0  0  0  0  0  0  0  0  0  0  0  0
  -25.2039   12.5219   27.8701 C   0  0  0  0  0  0  0  0  0  0  0  0
  -25.1875   11.7113   27.1323 H   0  0  0  0  0  0  0  0  0  0  0  0
  -25.1767   13.4703   27.3232 H   0  0  0  0  0  0  0  0  0  0  0  0
  -26.1513   12.4683   28.4152 H   0  0  0  0  0  0  0  0  0  0  0  0
  -22.7111   12.6695   26.8107 N   0  0  0  0  0  0  0  0  0  0  0  0
  -21.4383   12.6772   26.5202 C   0  0  0  0  0  0  0  0  0  0  0  0
  -21.0628   12.8140   25.5356 H   0  0  0  0  0  0  0  0  0  0  0  0
  1  2  1  0
  1  3  1  0
  3  4  1  0
  3  5  1  0
  3  6  1  0
  6  7  1  0
  6  8  1  0
  6  9  1  0
  9 10  2  0
  9 21  1  0
 10 11  1  0
 10 12  1  0
 12 13  1  0
 12 20  1  0
 13 14  1  0
 13 15  1  0
 13 16  1  0
 16 17  1  0
 16 18  1  0
 16 19  1  0
 20 21  2  0
 21 22  1  0
M  END
$$$$
