F179_40
     RDKit          3D

 29 30  0  0  0  0  0  0  0  0999 V2000
  -14.3846   18.0949   27.4807 C   0  0  0  0  0  0  0  0  0  0  0  0
  -14.8609   17.8859   28.4437 H   0  0  0  0  0  0  0  0  0  0  0  0
  -13.4576   18.6496   27.6644 H   0  0  0  0  0  0  0  0  0  0  0  0
  -14.0955   17.1413   27.0253 H   0  0  0  0  0  0  0  0  0  0  0  0
  -15.3074   18.8855   26.5587 C   0  0  0  0  0  0  0  0  0  0  0  0
  -14.6170   19.1448   25.3359 O   0  0  0  0  0  0  0  0  0  0  0  0
  -14.4588   18.2871   24.9059 H   0  0  0  0  0  0  0  0  0  0  0  0
  -16.5941   18.1675   26.3063 C   0  0  0  0  0  0  0  0  0  0  0  0
  -17.8619   18.7315   26.2228 C   0  0  0  0  0  0  0  0  0  0  0  0
  -18.0822   19.7634   26.3390 H   0  0  0  0  0  0  0  0  0  0  0  0
  -18.7696   17.8248   25.9799 N   0  0  0  0  0  0  0  0  0  0  0  0
  -18.0845   16.6486   25.9087 N   0  0  0  0  0  0  0  0  0  0  0  0
  -18.7664   15.4035   25.6529 C   0  0  0  0  0  0  0  0  0  0  0  0
  -19.8125   15.6473   25.4188 H   0  0  0  0  0  0  0  0  0  0  0  0
  -18.1817   14.5832   24.5041 C   0  0  0  0  0  0  0  0  0  0  0  0
  -18.4339   15.0011   23.5241 H   0  0  0  0  0  0  0  0  0  0  0  0
  -17.0883   14.5275   24.5656 H   0  0  0  0  0  0  0  0  0  0  0  0
  -18.7747   13.1915   24.7038 C   0  0  0  0  0  0  0  0  0  0  0  0
  -19.6759   13.0692   24.0918 H   0  0  0  0  0  0  0  0  0  0  0  0
  -18.0672   12.4119   24.4026 H   0  0  0  0  0  0  0  0  0  0  0  0
  -19.1382   13.0882   26.1854 C   0  0  0  0  0  0  0  0  0  0  0  0
  -18.6333   12.2459   26.6708 H   0  0  0  0  0  0  0  0  0  0  0  0
  -20.2180   12.9276   26.2913 H   0  0  0  0  0  0  0  0  0  0  0  0
  -18.7367   14.4163   26.8179 C   0  0  0  0  0  0  0  0  0  0  0  0
  -17.7296   14.3318   27.2456 H   0  0  0  0  0  0  0  0  0  0  0  0
  -19.4131   14.7075   27.6287 H   0  0  0  0  0  0  0  0  0  0  0  0
  -16.7602   16.8398   26.1032 C   0  0  0  0  0  0  0  0  0  0  0  0
  -16.0652   16.0414   26.0774 H   0  0  0  0  0  0  0  0  0  0  0  0
  -15.5253   19.8596   27.0149 H   0  0  0  0  0  0  0  0  0  0  0  0
  1  2  1  0
  1  3  1  0
  1  4  1  0
  1  5  1  0
  5  6  1  0
  5  8  1  0
  5 29  1  0
  6  7  1  0
  8  9  1  0
  8 27  2  0
  9 10  1  0
  9 11  2  0
 11 12  1  0
 12 13  1  0
 12 27  1  0
 13 14  1  0
 13 15  1  0
 13 24  1  0
 15 16  1  0
 15 17  1  0
 15 18  1  0
 18 19  1  0
 18 20  1  0
 18 21  1  0
 21 22  1  0
 21 23  1  0
 21 24  1  0
 24 25  1  0
 24 26  1  0
 27 28  1  0
M  END
$$$$
