F179_23
     RDKit          3D

 29 30  0  0  0  0  0  0  0  0999 V2000
  -15.0333   18.1158   25.6697 C   0  0  0  0  0  0  0  0  0  0  0  0
  -14.8173   17.1348   25.2349 H   0  0  0  0  0  0  0  0  0  0  0  0
  -14.0965   18.6804   25.7364 H   0  0  0  0  0  0  0  0  0  0  0  0
  -15.6821   18.6639   24.9776 H   0  0  0  0  0  0  0  0  0  0  0  0
  -15.6809   17.9893   27.0449 C   0  0  0  0  0  0  0  0  0  0  0  0
  -15.9109   19.3000   27.5628 O   0  0  0  0  0  0  0  0  0  0  0  0
  -16.3308   19.1970   28.4338 H   0  0  0  0  0  0  0  0  0  0  0  0
  -16.9508   17.2021   26.9943 C   0  0  0  0  0  0  0  0  0  0  0  0
  -18.1808   17.5672   27.5292 C   0  0  0  0  0  0  0  0  0  0  0  0
  -18.3756   18.4657   28.0600 H   0  0  0  0  0  0  0  0  0  0  0  0
  -19.0879   16.6569   27.2981 N   0  0  0  0  0  0  0  0  0  0  0  0
  -18.4389   15.6787   26.6053 N   0  0  0  0  0  0  0  0  0  0  0  0
  -19.1298   14.4888   26.1723 C   0  0  0  0  0  0  0  0  0  0  0  0
  -20.2042   14.6608   26.3294 H   0  0  0  0  0  0  0  0  0  0  0  0
  -18.8983   14.1170   24.7085 C   0  0  0  0  0  0  0  0  0  0  0  0
  -19.4484   14.7685   24.0218 H   0  0  0  0  0  0  0  0  0  0  0  0
  -17.8368   14.1796   24.4408 H   0  0  0  0  0  0  0  0  0  0  0  0
  -19.3618   12.6661   24.6175 C   0  0  0  0  0  0  0  0  0  0  0  0
  -20.4025   12.6186   24.2761 H   0  0  0  0  0  0  0  0  0  0  0  0
  -18.7570   12.1006   23.9009 H   0  0  0  0  0  0  0  0  0  0  0  0
  -19.2548   12.0916   26.0304 C   0  0  0  0  0  0  0  0  0  0  0  0
  -18.6020   11.2126   26.0643 H   0  0  0  0  0  0  0  0  0  0  0  0
  -20.2462   11.7767   26.3781 H   0  0  0  0  0  0  0  0  0  0  0  0
  -18.7188   13.2162   26.9098 C   0  0  0  0  0  0  0  0  0  0  0  0
  -17.6274   13.1342   26.9893 H   0  0  0  0  0  0  0  0  0  0  0  0
  -19.1251   13.1735   27.9261 H   0  0  0  0  0  0  0  0  0  0  0  0
  -17.1390   15.9956   26.4108 C   0  0  0  0  0  0  0  0  0  0  0  0
  -16.4758   15.3590   25.8854 H   0  0  0  0  0  0  0  0  0  0  0  0
  -14.9806   17.4940   27.7294 H   0  0  0  0  0  0  0  0  0  0  0  0
  1  2  1  0
  1  3  1  0
  1  4  1  0
  1  5  1  0
  5  6  1  0
  5  8  1  0
  5 29  1  0
  6  7  1  0
  8  9  1  0
  8 27  2  0
  9 10  1  0
  9 11  2  0
 11 12  1  0
 12 13  1  0
 12 27  1  0
 13 14  1  0
 13 15  1  0
 13 24  1  0
 15 16  1  0
 15 17  1  0
 15 18  1  0
 18 19  1  0
 18 20  1  0
 18 21  1  0
 21 22  1  0
 21 23  1  0
 21 24  1  0
 24 25  1  0
 24 26  1  0
 27 28  1  0
M  END
$$$$
