F710_83
     RDKit          3D

 30 31  0  0  0  0  0  0  0  0999 V2000
  -24.7563   12.2439   30.4423 F   0  0  0  0  0  0  0  0  0  0  0  0
  -23.7110   12.3882   29.6151 C   0  0  0  0  0  0  0  0  0  0  0  0
  -22.4417   12.0549   30.0726 C   0  0  0  0  0  0  0  0  0  0  0  0
  -22.3084   11.6968   31.0599 H   0  0  0  0  0  0  0  0  0  0  0  0
  -21.3573   12.2060   29.2143 C   0  0  0  0  0  0  0  0  0  0  0  0
  -20.3785   11.9780   29.5438 H   0  0  0  0  0  0  0  0  0  0  0  0
  -21.5578   12.6828   27.9114 C   0  0  0  0  0  0  0  0  0  0  0  0
  -20.4756   12.8356   27.0543 N   0  0  0  0  0  0  0  0  0  0  0  0
  -20.0010   11.7437   26.1935 C   0  0  0  0  0  0  0  0  0  0  0  0
  -19.0115   11.4219   26.5405 H   0  0  0  0  0  0  0  0  0  0  0  0
  -20.6627   10.8708   26.2189 H   0  0  0  0  0  0  0  0  0  0  0  0
  -19.9185   12.2315   24.7386 C   0  0  0  0  0  0  0  0  0  0  0  0
  -20.9259   12.4418   24.3593 H   0  0  0  0  0  0  0  0  0  0  0  0
  -19.4946   11.4422   24.1092 H   0  0  0  0  0  0  0  0  0  0  0  0
  -19.1575   13.4818   24.6175 N   0  0  0  0  0  0  0  0  0  0  0  0
  -18.1041   13.5332   23.7461 C   0  0  0  0  0  0  0  0  0  0  0  0
  -17.6369   12.5570   23.1841 O   0  0  0  0  0  0  0  0  0  0  0  0
  -17.5903   14.7428   23.5092 N   0  0  0  0  0  0  0  0  0  0  0  0
  -17.0213   14.8020   22.6581 H   0  0  0  0  0  0  0  0  0  0  0  0
  -18.1792   15.5389   23.7631 H   0  0  0  0  0  0  0  0  0  0  0  0
  -19.6315   14.5614   25.5020 C   0  0  0  0  0  0  0  0  0  0  0  0
  -18.9788   15.4359   25.4610 H   0  0  0  0  0  0  0  0  0  0  0  0
  -20.6228   14.8577   25.1408 H   0  0  0  0  0  0  0  0  0  0  0  0
  -19.7132   14.0878   26.9628 C   0  0  0  0  0  0  0  0  0  0  0  0
  -20.1209   14.8885   27.5891 H   0  0  0  0  0  0  0  0  0  0  0  0
  -18.6992   13.8940   27.3353 H   0  0  0  0  0  0  0  0  0  0  0  0
  -22.8485   13.0183   27.4701 C   0  0  0  0  0  0  0  0  0  0  0  0
  -23.0083   13.3716   26.4873 H   0  0  0  0  0  0  0  0  0  0  0  0
  -23.9323   12.8675   28.3296 C   0  0  0  0  0  0  0  0  0  0  0  0
  -24.9141   13.1101   28.0166 H   0  0  0  0  0  0  0  0  0  0  0  0
  1  2  1  0
  2  3  1  0
  2 29  2  0
  3  4  1  0
  3  5  2  0
  5  6  1  0
  5  7  1  0
  7  8  1  0
  7 27  2  0
  8  9  1  0
  8 24  1  0
  9 10  1  0
  9 11  1  0
  9 12  1  0
 12 13  1  0
 12 14  1  0
 12 15  1  0
 15 16  1  0
 15 21  1  0
 16 17  2  0
 16 18  1  0
 18 19  1  0
 18 20  1  0
 21 22  1  0
 21 23  1  0
 21 24  1  0
 24 25  1  0
 24 26  1  0
 27 28  1  0
 27 29  1  0
 29 30  1  0
M  END
$$$$
