F763_68
     RDKit          3D

 19 19  0  0  0  0  0  0  0  0999 V2000
  -16.9022   20.4760   28.1357 Br  0  0  0  0  0  0  0  0  0  0  0  0
  -17.2531   18.8347   27.3106 C   0  0  0  0  0  0  0  0  0  0  0  0
  -16.2888   17.8784   27.2147 C   0  0  0  0  0  0  0  0  0  0  0  0
  -15.3171   18.0331   27.6001 H   0  0  0  0  0  0  0  0  0  0  0  0
  -16.5596   16.6274   26.5822 C   0  0  0  0  0  0  0  0  0  0  0  0
  -15.7231   15.7254   26.4447 O   0  0  0  0  0  0  0  0  0  0  0  0
  -17.8477   16.4160   26.0803 N   0  0  0  0  0  0  0  0  0  0  0  0
  -18.1737   15.1456   25.4300 C   0  0  0  0  0  0  0  0  0  0  0  0
  -18.9003   15.3243   24.6279 H   0  0  0  0  0  0  0  0  0  0  0  0
  -17.2827   14.7390   24.9338 H   0  0  0  0  0  0  0  0  0  0  0  0
  -18.7466   14.1246   26.4114 C   0  0  0  0  0  0  0  0  0  0  0  0
  -19.1018   13.2248   25.8986 H   0  0  0  0  0  0  0  0  0  0  0  0
  -19.5951   14.5518   26.9561 H   0  0  0  0  0  0  0  0  0  0  0  0
  -17.7598   13.7453   27.3637 O   0  0  0  0  0  0  0  0  0  0  0  0
  -17.4434   14.5599   27.7939 H   0  0  0  0  0  0  0  0  0  0  0  0
  -18.8300   17.3957   26.1740 C   0  0  0  0  0  0  0  0  0  0  0  0
  -19.7749   17.1475   25.7559 H   0  0  0  0  0  0  0  0  0  0  0  0
  -18.5489   18.5862   26.7771 C   0  0  0  0  0  0  0  0  0  0  0  0
  -19.2913   19.3388   26.8541 H   0  0  0  0  0  0  0  0  0  0  0  0
  1  2  1  0
  2  3  2  0
  2 18  1  0
  3  4  1  0
  3  5  1  0
  5  6  2  0
  5  7  1  0
  7  8  1  0
  7 16  1  0
  8  9  1  0
  8 10  1  0
  8 11  1  0
 11 12  1  0
 11 13  1  0
 11 14  1  0
 14 15  1  0
 16 17  1  0
 16 18  2  0
 18 19  1  0
M  END
$$$$
