F179_66
     RDKit          3D

 29 30  0  0  0  0  0  0  0  0999 V2000
  -18.9569   14.7919   26.3763 C   0  0  0  0  0  0  0  0  0  0  0  0
  -19.7464   15.0853   25.6774 H   0  0  0  0  0  0  0  0  0  0  0  0
  -18.0259   15.2863   26.0768 H   0  0  0  0  0  0  0  0  0  0  0  0
  -19.2137   15.1796   27.3684 H   0  0  0  0  0  0  0  0  0  0  0  0
  -18.7719   13.2782   26.4100 C   0  0  0  0  0  0  0  0  0  0  0  0
  -17.7144   12.9683   27.3182 O   0  0  0  0  0  0  0  0  0  0  0  0
  -18.0162   13.2163   28.2087 H   0  0  0  0  0  0  0  0  0  0  0  0
  -20.0317   12.5697   26.7918 C   0  0  0  0  0  0  0  0  0  0  0  0
  -20.3528   11.2418   26.5352 C   0  0  0  0  0  0  0  0  0  0  0  0
  -19.7350   10.5512   26.0171 H   0  0  0  0  0  0  0  0  0  0  0  0
  -21.5279   10.9362   27.0155 N   0  0  0  0  0  0  0  0  0  0  0  0
  -21.9842   12.0845   27.5909 N   0  0  0  0  0  0  0  0  0  0  0  0
  -23.2752   12.1344   28.2325 C   0  0  0  0  0  0  0  0  0  0  0  0
  -23.6292   11.0985   28.3327 H   0  0  0  0  0  0  0  0  0  0  0  0
  -23.2741   12.7913   29.6120 C   0  0  0  0  0  0  0  0  0  0  0  0
  -22.8412   12.1432   30.3810 H   0  0  0  0  0  0  0  0  0  0  0  0
  -22.7023   13.7269   29.6114 H   0  0  0  0  0  0  0  0  0  0  0  0
  -24.7457   13.0938   29.8790 C   0  0  0  0  0  0  0  0  0  0  0  0
  -25.2013   12.2865   30.4642 H   0  0  0  0  0  0  0  0  0  0  0  0
  -24.8626   14.0191   30.4528 H   0  0  0  0  0  0  0  0  0  0  0  0
  -25.4207   13.1842   28.5101 C   0  0  0  0  0  0  0  0  0  0  0  0
  -25.9077   14.1538   28.3593 H   0  0  0  0  0  0  0  0  0  0  0  0
  -26.1957   12.4124   28.4278 H   0  0  0  0  0  0  0  0  0  0  0  0
  -24.3253   12.9457   27.4764 C   0  0  0  0  0  0  0  0  0  0  0  0
  -23.9208   13.9083   27.1387 H   0  0  0  0  0  0  0  0  0  0  0  0
  -24.7010   12.4202   26.5919 H   0  0  0  0  0  0  0  0  0  0  0  0
  -21.0856   13.0869   27.4651 C   0  0  0  0  0  0  0  0  0  0  0  0
  -21.2616   14.0547   27.8567 H   0  0  0  0  0  0  0  0  0  0  0  0
  -18.4532   12.9314   25.4188 H   0  0  0  0  0  0  0  0  0  0  0  0
  1  2  1  0
  1  3  1  0
  1  4  1  0
  1  5  1  0
  5  6  1  0
  5  8  1  0
  5 29  1  0
  6  7  1  0
  8  9  1  0
  8 27  2  0
  9 10  1  0
  9 11  2  0
 11 12  1  0
 12 13  1  0
 12 27  1  0
 13 14  1  0
 13 15  1  0
 13 24  1  0
 15 16  1  0
 15 17  1  0
 15 18  1  0
 18 19  1  0
 18 20  1  0
 18 21  1  0
 21 22  1  0
 21 23  1  0
 21 24  1  0
 24 25  1  0
 24 26  1  0
 27 28  1  0
M  END
$$$$
