F199_58
     RDKit          3D

 25 26  0  0  0  0  0  0  0  0999 V2000
  -21.4440   11.4098   27.2706 O   0  0  0  0  0  0  0  0  0  0  0  0
  -21.0620   12.5483   27.5328 C   0  0  0  0  0  0  0  0  0  0  0  0
  -21.9342   13.4277   28.1269 N   0  0  0  0  0  0  0  0  0  0  0  0
  -21.5278   14.3560   28.3090 H   0  0  0  0  0  0  0  0  0  0  0  0
  -23.2499   13.1992   28.4877 C   0  0  0  0  0  0  0  0  0  0  0  0
  -24.0041   14.1493   29.0770 C   0  0  0  0  0  0  0  0  0  0  0  0
  -23.7937   15.1463   29.3590 H   0  0  0  0  0  0  0  0  0  0  0  0
  -25.2104   13.5619   29.2733 N   0  0  0  0  0  0  0  0  0  0  0  0
  -26.3874   14.1369   29.8716 C   0  0  0  0  0  0  0  0  0  0  0  0
  -26.1738   15.1616   30.1845 H   0  0  0  0  0  0  0  0  0  0  0  0
  -26.6651   13.5320   30.7385 H   0  0  0  0  0  0  0  0  0  0  0  0
  -27.1889   14.1332   29.1286 H   0  0  0  0  0  0  0  0  0  0  0  0
  -25.2387   12.2774   28.8283 N   0  0  0  0  0  0  0  0  0  0  0  0
  -24.0400   12.0587   28.3484 C   0  0  0  0  0  0  0  0  0  0  0  0
  -23.7377   11.1381   27.9204 H   0  0  0  0  0  0  0  0  0  0  0  0
  -19.7330   13.0584   27.2626 C   0  0  0  0  0  0  0  0  0  0  0  0
  -18.6917   12.2728   27.1452 N   0  0  0  0  0  0  0  0  0  0  0  0
  -17.6391   13.0486   26.9027 O   0  0  0  0  0  0  0  0  0  0  0  0
  -18.0025   14.3345   26.8645 C   0  0  0  0  0  0  0  0  0  0  0  0
  -16.9450   15.3239   26.6048 C   0  0  0  0  0  0  0  0  0  0  0  0
  -17.3491   16.3408   26.6034 H   0  0  0  0  0  0  0  0  0  0  0  0
  -16.4799   15.1409   25.6314 H   0  0  0  0  0  0  0  0  0  0  0  0
  -16.1685   15.2675   27.3733 H   0  0  0  0  0  0  0  0  0  0  0  0
  -19.3219   14.3814   27.0895 C   0  0  0  0  0  0  0  0  0  0  0  0
  -19.9330   15.2456   27.1274 H   0  0  0  0  0  0  0  0  0  0  0  0
  1  2  2  0
  2  3  1  0
  2 16  1  0
  3  4  1  0
  3  5  1  0
  5  6  2  0
  5 14  1  0
  6  7  1  0
  6  8  1  0
  8  9  1  0
  8 13  1  0
  9 10  1  0
  9 11  1  0
  9 12  1  0
 13 14  2  0
 14 15  1  0
 16 17  2  0
 16 24  1  0
 17 18  1  0
 18 19  1  0
 19 20  1  0
 19 24  2  0
 20 21  1  0
 20 22  1  0
 20 23  1  0
 24 25  1  0
M  END
$$$$
