F741_40
     RDKit          3D

 25 27  0  0  0  0  0  0  0  0999 V2000
  -19.8802   11.5878   26.2032 O   0  0  0  0  0  0  0  0  0  0  0  0
  -20.4560   12.3054   27.0189 C   0  0  0  0  0  0  0  0  0  0  0  0
  -19.8646   13.4761   27.3887 N   0  0  0  0  0  0  0  0  0  0  0  0
  -20.3972   14.0471   28.0653 H   0  0  0  0  0  0  0  0  0  0  0  0
  -18.6071   13.9397   26.9056 C   0  0  0  0  0  0  0  0  0  0  0  0
  -17.7767   13.3063   27.2091 H   0  0  0  0  0  0  0  0  0  0  0  0
  -18.3206   15.4133   26.8018 C   0  0  0  0  0  0  0  0  0  0  0  0
  -19.1028   16.1167   27.0602 H   0  0  0  0  0  0  0  0  0  0  0  0
  -17.3200   15.7502   27.0458 H   0  0  0  0  0  0  0  0  0  0  0  0
  -18.5004   14.5956   25.5569 C   0  0  0  0  0  0  0  0  0  0  0  0
  -17.6250   14.3737   24.9586 H   0  0  0  0  0  0  0  0  0  0  0  0
  -19.4086   14.7371   24.9822 H   0  0  0  0  0  0  0  0  0  0  0  0
  -21.7347   11.9979   27.6162 C   0  0  0  0  0  0  0  0  0  0  0  0
  -22.4929   12.8432   28.3871 C   0  0  0  0  0  0  0  0  0  0  0  0
  -23.6053   12.1044   28.7142 N   0  0  0  0  0  0  0  0  0  0  0  0
  -23.5834   10.8509   28.1884 N   0  0  0  0  0  0  0  0  0  0  0  0
  -22.4499   10.8042   27.5309 C   0  0  0  0  0  0  0  0  0  0  0  0
  -22.1250    9.9462   26.9962 H   0  0  0  0  0  0  0  0  0  0  0  0
  -24.6276   12.6383   29.5088 C   0  0  0  0  0  0  0  0  0  0  0  0
  -25.4434   11.9932   29.7077 H   0  0  0  0  0  0  0  0  0  0  0  0
  -24.4509   13.9268   29.9344 C   0  0  0  0  0  0  0  0  0  0  0  0
  -25.1783   14.4007   30.5401 H   0  0  0  0  0  0  0  0  0  0  0  0
  -23.2763   14.6651   29.5715 C   0  0  0  0  0  0  0  0  0  0  0  0
  -23.1617   15.6617   29.9136 H   0  0  0  0  0  0  0  0  0  0  0  0
  -22.3271   14.1623   28.8300 N   0  0  0  0  0  0  0  0  0  0  0  0
  1  2  2  0
  2  3  1  0
  2 13  1  0
  3  4  1  0
  3  5  1  0
  5  6  1  0
  5  7  1  0
  5 10  1  0
  7  8  1  0
  7  9  1  0
  7 10  1  0
 10 11  1  0
 10 12  1  0
 13 14  2  0
 13 17  1  0
 14 15  1  0
 14 25  1  0
 15 16  1  0
 15 19  1  0
 16 17  2  0
 17 18  1  0
 19 20  1  0
 19 21  2  0
 21 22  1  0
 21 23  1  0
 23 24  1  0
 23 25  2  0
M  END
$$$$
