F362_34
     RDKit          3D

 30 31  0  0  0  0  0  0  0  0999 V2000
  -23.5880   12.6358   28.6653 N   0  0  0  0  0  0  0  0  0  0  0  0
  -22.5065   13.1207   27.7863 C   0  0  0  0  0  0  0  0  0  0  0  0
  -22.8846   13.4090   26.8016 H   0  0  0  0  0  0  0  0  0  0  0  0
  -22.0859   14.0489   28.1934 H   0  0  0  0  0  0  0  0  0  0  0  0
  -21.3868   12.0957   27.6855 C   0  0  0  0  0  0  0  0  0  0  0  0
  -21.7439   11.1282   27.3225 H   0  0  0  0  0  0  0  0  0  0  0  0
  -20.9227   11.9261   28.6633 H   0  0  0  0  0  0  0  0  0  0  0  0
  -20.6088   12.4508   27.0017 H   0  0  0  0  0  0  0  0  0  0  0  0
  -24.9282   12.7546   28.0564 C   0  0  0  0  0  0  0  0  0  0  0  0
  -24.9365   12.3491   27.0389 H   0  0  0  0  0  0  0  0  0  0  0  0
  -25.6533   12.1458   28.6117 H   0  0  0  0  0  0  0  0  0  0  0  0
  -25.3984   14.2025   28.0593 C   0  0  0  0  0  0  0  0  0  0  0  0
  -24.7272   14.8451   27.4818 H   0  0  0  0  0  0  0  0  0  0  0  0
  -25.4434   14.5998   29.0782 H   0  0  0  0  0  0  0  0  0  0  0  0
  -26.3986   14.2755   27.6212 H   0  0  0  0  0  0  0  0  0  0  0  0
  -23.3773   12.0990   29.9849 C   0  0  0  0  0  0  0  0  0  0  0  0
  -23.3846   12.9341   31.1609 N   0  0  0  0  0  0  0  0  0  0  0  0
  -23.5747   14.2667   31.2790 N   0  0  0  0  0  0  0  0  0  0  0  0
  -23.4749   14.4512   32.5592 C   0  0  0  0  0  0  0  0  0  0  0  0
  -23.5763   15.4129   32.9994 H   0  0  0  0  0  0  0  0  0  0  0  0
  -23.2365   13.3581   33.2915 N   0  0  0  0  0  0  0  0  0  0  0  0
  -23.1809   12.4019   32.4100 C   0  0  0  0  0  0  0  0  0  0  0  0
  -22.9554   11.0531   32.6265 N   0  0  0  0  0  0  0  0  0  0  0  0
  -22.9402   10.2648   31.6015 C   0  0  0  0  0  0  0  0  0  0  0  0
  -22.6980    8.7951   31.8099 C   0  0  0  0  0  0  0  0  0  0  0  0
  -22.7028    8.2495   30.8635 H   0  0  0  0  0  0  0  0  0  0  0  0
  -23.4804    8.3889   32.4572 H   0  0  0  0  0  0  0  0  0  0  0  0
  -21.7269    8.6551   32.2943 H   0  0  0  0  0  0  0  0  0  0  0  0
  -23.1544   10.7537   30.2140 C   0  0  0  0  0  0  0  0  0  0  0  0
  -23.1228   10.0721   29.4108 H   0  0  0  0  0  0  0  0  0  0  0  0
  1  2  1  0
  1  9  1  0
  1 16  1  0
  2  3  1  0
  2  4  1  0
  2  5  1  0
  5  6  1  0
  5  7  1  0
  5  8  1  0
  9 10  1  0
  9 11  1  0
  9 12  1  0
 12 13  1  0
 12 14  1  0
 12 15  1  0
 16 17  1  0
 16 29  2  0
 17 18  1  0
 17 22  1  0
 18 19  2  0
 19 20  1  0
 19 21  1  0
 21 22  2  0
 22 23  1  0
 23 24  2  0
 24 25  1  0
 24 29  1  0
 25 26  1  0
 25 27  1  0
 25 28  1  0
 29 30  1  0
M  END
$$$$
