F740_9
     RDKit          3D

 26 28  0  0  0  0  0  0  0  0999 V2000
  -20.2105   12.2529   28.9561 O   0  0  0  0  0  0  0  0  0  0  0  0
  -21.1469   12.4117   28.1793 C   0  0  0  0  0  0  0  0  0  0  0  0
  -20.9347   12.1270   26.8538 N   0  0  0  0  0  0  0  0  0  0  0  0
  -21.7388   12.1469   26.2201 H   0  0  0  0  0  0  0  0  0  0  0  0
  -19.6589   11.7740   26.3160 C   0  0  0  0  0  0  0  0  0  0  0  0
  -19.5770   10.7144   26.0832 H   0  0  0  0  0  0  0  0  0  0  0  0
  -18.4043   12.4528   26.7946 C   0  0  0  0  0  0  0  0  0  0  0  0
  -18.4860   13.2473   27.5267 H   0  0  0  0  0  0  0  0  0  0  0  0
  -17.5104   11.8482   26.8929 H   0  0  0  0  0  0  0  0  0  0  0  0
  -18.9203   12.7227   25.4123 C   0  0  0  0  0  0  0  0  0  0  0  0
  -18.3848   12.2971   24.5724 H   0  0  0  0  0  0  0  0  0  0  0  0
  -19.3642   13.6904   25.2119 H   0  0  0  0  0  0  0  0  0  0  0  0
  -22.4923   12.8396   28.6209 C   0  0  0  0  0  0  0  0  0  0  0  0
  -23.3246   13.4838   27.6857 C   0  0  0  0  0  0  0  0  0  0  0  0
  -22.9927   13.6599   26.6956 H   0  0  0  0  0  0  0  0  0  0  0  0
  -24.5887   13.8863   28.0828 C   0  0  0  0  0  0  0  0  0  0  0  0
  -25.5060   14.5205   27.3071 O   0  0  0  0  0  0  0  0  0  0  0  0
  -26.5931   14.6769   28.2428 C   0  0  0  0  0  0  0  0  0  0  0  0
  -26.8133   15.7445   28.3493 H   0  0  0  0  0  0  0  0  0  0  0  0
  -27.4789   14.1734   27.8388 H   0  0  0  0  0  0  0  0  0  0  0  0
  -26.3077   14.1319   29.5483 O   0  0  0  0  0  0  0  0  0  0  0  0
  -25.0453   13.6645   29.3585 C   0  0  0  0  0  0  0  0  0  0  0  0
  -24.2595   13.0234   30.3056 C   0  0  0  0  0  0  0  0  0  0  0  0
  -24.6321   12.8537   31.2835 H   0  0  0  0  0  0  0  0  0  0  0  0
  -22.9812   12.6076   29.9307 C   0  0  0  0  0  0  0  0  0  0  0  0
  -22.3779   12.0999   30.6392 H   0  0  0  0  0  0  0  0  0  0  0  0
  1  2  2  0
  2  3  1  0
  2 13  1  0
  3  4  1  0
  3  5  1  0
  5  6  1  0
  5  7  1  0
  5 10  1  0
  7  8  1  0
  7  9  1  0
  7 10  1  0
 10 11  1  0
 10 12  1  0
 13 14  1  0
 13 25  2  0
 14 15  1  0
 14 16  2  0
 16 17  1  0
 16 22  1  0
 17 18  1  0
 18 19  1  0
 18 20  1  0
 18 21  1  0
 21 22  1  0
 22 23  2  0
 23 24  1  0
 23 25  1  0
 25 26  1  0
M  END
$$$$
