F710_81
     RDKit          3D

 30 31  0  0  0  0  0  0  0  0999 V2000
  -25.3400   12.7457   29.7363 F   0  0  0  0  0  0  0  0  0  0  0  0
  -24.1597   12.7230   29.1006 C   0  0  0  0  0  0  0  0  0  0  0  0
  -24.1174   13.0533   27.7513 C   0  0  0  0  0  0  0  0  0  0  0  0
  -25.0062   13.3140   27.2386 H   0  0  0  0  0  0  0  0  0  0  0  0
  -22.8927   13.0284   27.0918 C   0  0  0  0  0  0  0  0  0  0  0  0
  -22.8357   13.2565   26.0606 H   0  0  0  0  0  0  0  0  0  0  0  0
  -21.7289   12.6791   27.7909 C   0  0  0  0  0  0  0  0  0  0  0  0
  -20.5060   12.6523   27.1330 N   0  0  0  0  0  0  0  0  0  0  0  0
  -19.9869   11.4329   26.4990 C   0  0  0  0  0  0  0  0  0  0  0  0
  -19.1040   11.0922   27.0533 H   0  0  0  0  0  0  0  0  0  0  0  0
  -20.7165   10.6156   26.5001 H   0  0  0  0  0  0  0  0  0  0  0  0
  -19.6125   11.7295   25.0383 C   0  0  0  0  0  0  0  0  0  0  0  0
  -20.5172   11.9570   24.4614 H   0  0  0  0  0  0  0  0  0  0  0  0
  -19.1567   10.8418   24.5876 H   0  0  0  0  0  0  0  0  0  0  0  0
  -18.7361   12.9021   24.9199 N   0  0  0  0  0  0  0  0  0  0  0  0
  -17.5477   12.7751   24.2541 C   0  0  0  0  0  0  0  0  0  0  0  0
  -17.0774   11.7080   23.8978 O   0  0  0  0  0  0  0  0  0  0  0  0
  -16.8975   13.9093   23.9821 N   0  0  0  0  0  0  0  0  0  0  0  0
  -16.0292   13.7829   23.4512 H   0  0  0  0  0  0  0  0  0  0  0  0
  -17.4805   14.7252   23.7838 H   0  0  0  0  0  0  0  0  0  0  0  0
  -19.2597   14.1122   25.5786 C   0  0  0  0  0  0  0  0  0  0  0  0
  -18.5361   14.9298   25.5604 H   0  0  0  0  0  0  0  0  0  0  0  0
  -20.1442   14.4261   25.0129 H   0  0  0  0  0  0  0  0  0  0  0  0
  -19.6331   13.8304   27.0436 C   0  0  0  0  0  0  0  0  0  0  0  0
  -20.0715   14.7278   27.4930 H   0  0  0  0  0  0  0  0  0  0  0  0
  -18.7194   13.6179   27.6132 H   0  0  0  0  0  0  0  0  0  0  0  0
  -21.7941   12.3444   29.1536 C   0  0  0  0  0  0  0  0  0  0  0  0
  -20.9203   12.0869   29.6887 H   0  0  0  0  0  0  0  0  0  0  0  0
  -23.0197   12.3687   29.8120 C   0  0  0  0  0  0  0  0  0  0  0  0
  -23.0914   12.1244   30.8396 H   0  0  0  0  0  0  0  0  0  0  0  0
  1  2  1  0
  2  3  1  0
  2 29  2  0
  3  4  1  0
  3  5  2  0
  5  6  1  0
  5  7  1  0
  7  8  1  0
  7 27  2  0
  8  9  1  0
  8 24  1  0
  9 10  1  0
  9 11  1  0
  9 12  1  0
 12 13  1  0
 12 14  1  0
 12 15  1  0
 15 16  1  0
 15 21  1  0
 16 17  2  0
 16 18  1  0
 18 19  1  0
 18 20  1  0
 21 22  1  0
 21 23  1  0
 21 24  1  0
 24 25  1  0
 24 26  1  0
 27 28  1  0
 27 29  1  0
 29 30  1  0
M  END
$$$$
