F579_18
     RDKit          3D

 29 31  0  0  0  0  0  0  0  0999 V2000
  -15.0424   17.2068   27.6707 O   0  0  0  0  0  0  0  0  0  0  0  0
  -15.0226   17.4517   26.4852 C   0  0  0  0  0  0  0  0  0  0  0  0
  -15.7836   16.7555   25.5965 N   0  0  0  0  0  0  0  0  0  0  0  0
  -15.6873   17.0149   24.6112 H   0  0  0  0  0  0  0  0  0  0  0  0
  -16.6763   15.7318   25.8120 C   0  0  0  0  0  0  0  0  0  0  0  0
  -17.2620   15.3419   27.4002 S   0  0  0  0  0  0  0  0  0  0  0  0
  -18.2104   14.0855   26.6839 C   0  0  0  0  0  0  0  0  0  0  0  0
  -18.0009   14.0713   25.3056 C   0  0  0  0  0  0  0  0  0  0  0  0
  -17.1157   15.0251   24.8186 N   0  0  0  0  0  0  0  0  0  0  0  0
  -18.6807   13.1215   24.5253 C   0  0  0  0  0  0  0  0  0  0  0  0
  -18.5249   13.1054   23.4786 H   0  0  0  0  0  0  0  0  0  0  0  0
  -19.5437   12.2174   25.1279 C   0  0  0  0  0  0  0  0  0  0  0  0
  -20.0545   11.5035   24.5362 H   0  0  0  0  0  0  0  0  0  0  0  0
  -19.7375   12.2560   26.5271 C   0  0  0  0  0  0  0  0  0  0  0  0
  -20.5643   11.4169   27.2317 O   0  0  0  0  0  0  0  0  0  0  0  0
  -21.7787   11.9650   27.7310 C   0  0  0  0  0  0  0  0  0  0  0  0
  -22.4233   12.3051   26.9135 H   0  0  0  0  0  0  0  0  0  0  0  0
  -22.3099   11.1705   28.2638 H   0  0  0  0  0  0  0  0  0  0  0  0
  -21.5839   12.7716   28.4453 H   0  0  0  0  0  0  0  0  0  0  0  0
  -19.0782   13.1829   27.3134 C   0  0  0  0  0  0  0  0  0  0  0  0
  -19.2238   13.2086   28.3617 H   0  0  0  0  0  0  0  0  0  0  0  0
  -14.1896   18.5327   25.9141 C   0  0  0  0  0  0  0  0  0  0  0  0
  -13.1324   18.2859   25.8664 H   0  0  0  0  0  0  0  0  0  0  0  0
  -14.5526   19.9849   26.1159 C   0  0  0  0  0  0  0  0  0  0  0  0
  -15.4559   20.2373   26.6600 H   0  0  0  0  0  0  0  0  0  0  0  0
  -13.7451   20.6952   26.2452 H   0  0  0  0  0  0  0  0  0  0  0  0
  -14.7193   19.3551   24.7645 C   0  0  0  0  0  0  0  0  0  0  0  0
  -14.0250   19.6351   23.9815 H   0  0  0  0  0  0  0  0  0  0  0  0
  -15.7274   19.1608   24.4136 H   0  0  0  0  0  0  0  0  0  0  0  0
  1  2  2  0
  2  3  1  0
  2 22  1  0
  3  4  1  0
  3  5  1  0
  5  6  1  0
  5  9  2  0
  6  7  1  0
  7  8  1  0
  7 20  2  0
  8  9  1  0
  8 10  2  0
 10 11  1  0
 10 12  1  0
 12 13  1  0
 12 14  2  0
 14 15  1  0
 14 20  1  0
 15 16  1  0
 16 17  1  0
 16 18  1  0
 16 19  1  0
 20 21  1  0
 22 23  1  0
 22 24  1  0
 22 27  1  0
 24 25  1  0
 24 26  1  0
 24 27  1  0
 27 28  1  0
 27 29  1  0
M  END
$$$$
