F618_78
     RDKit          3D

 26 26  0  0  0  0  0  0  0  0999 V2000
  -22.3124   12.9931   25.9642 F   0  0  0  0  0  0  0  0  0  0  0  0
  -21.2319   12.7577   26.7248 C   0  0  0  0  0  0  0  0  0  0  0  0
  -21.3331   12.4516   28.0943 C   0  0  0  0  0  0  0  0  0  0  0  0
  -22.5737   12.3451   28.7432 N   0  0  0  0  0  0  0  0  0  0  0  0
  -23.1988   13.5935   29.2401 C   0  0  0  0  0  0  0  0  0  0  0  0
  -23.5875   13.4666   30.7249 C   0  0  0  0  0  0  0  0  0  0  0  0
  -24.5355   12.9276   30.8272 H   0  0  0  0  0  0  0  0  0  0  0  0
  -23.7142   14.4477   31.1932 H   0  0  0  0  0  0  0  0  0  0  0  0
  -22.5995   12.7575   31.4698 O   0  0  0  0  0  0  0  0  0  0  0  0
  -22.5723   11.8708   31.0673 H   0  0  0  0  0  0  0  0  0  0  0  0
  -24.3974   14.0269   28.3871 C   0  0  0  0  0  0  0  0  0  0  0  0
  -24.7119   15.0386   28.6677 H   0  0  0  0  0  0  0  0  0  0  0  0
  -25.2667   13.3764   28.5199 H   0  0  0  0  0  0  0  0  0  0  0  0
  -24.1377   14.0412   27.3240 H   0  0  0  0  0  0  0  0  0  0  0  0
  -23.2194   11.0511   28.9099 C   0  0  0  0  0  0  0  0  0  0  0  0
  -23.6611   10.7140   27.9664 H   0  0  0  0  0  0  0  0  0  0  0  0
  -24.0184   11.0767   29.6567 H   0  0  0  0  0  0  0  0  0  0  0  0
  -22.5108   10.2977   29.2744 H   0  0  0  0  0  0  0  0  0  0  0  0
  -20.2405   12.2342   28.8425 N   0  0  0  0  0  0  0  0  0  0  0  0
  -19.0370   12.3290   28.2636 C   0  0  0  0  0  0  0  0  0  0  0  0
  -18.1848   12.1593   28.8704 H   0  0  0  0  0  0  0  0  0  0  0  0
  -18.8763   12.6387   26.9117 C   0  0  0  0  0  0  0  0  0  0  0  0
  -17.9049   12.7037   26.4958 H   0  0  0  0  0  0  0  0  0  0  0  0
  -19.9964   12.8591   26.1143 C   0  0  0  0  0  0  0  0  0  0  0  0
  -19.9138   13.0931   25.0846 H   0  0  0  0  0  0  0  0  0  0  0  0
  -22.4841   14.4227   29.1498 H   0  0  0  0  0  0  0  0  0  0  0  0
  1  2  1  0
  2  3  1  0
  2 24  2  0
  3  4  1  0
  3 19  2  0
  4  5  1  0
  4 15  1  0
  5  6  1  0
  5 11  1  0
  5 26  1  0
  6  7  1  0
  6  8  1  0
  6  9  1  0
  9 10  1  0
 11 12  1  0
 11 13  1  0
 11 14  1  0
 15 16  1  0
 15 17  1  0
 15 18  1  0
 19 20  1  0
 20 21  1  0
 20 22  2  0
 22 23  1  0
 22 24  1  0
 24 25  1  0
M  END
$$$$
