F687_83
     RDKit          3D

 24 25  0  0  0  0  0  0  0  0999 V2000
  -22.4386   13.8640   29.5929 F   0  0  0  0  0  0  0  0  0  0  0  0
  -23.6719   14.1676   29.1595 C   0  0  0  0  0  0  0  0  0  0  0  0
  -24.1658   13.6246   27.9564 C   0  0  0  0  0  0  0  0  0  0  0  0
  -23.4447   12.7617   27.1510 N   0  0  0  0  0  0  0  0  0  0  0  0
  -23.5411   12.7913   26.1404 H   0  0  0  0  0  0  0  0  0  0  0  0
  -22.5074   11.7510   27.6195 C   0  0  0  0  0  0  0  0  0  0  0  0
  -22.5147   11.7321   28.7167 H   0  0  0  0  0  0  0  0  0  0  0  0
  -22.8287   10.7660   27.2607 H   0  0  0  0  0  0  0  0  0  0  0  0
  -21.0827   11.9509   27.1801 C   0  0  0  0  0  0  0  0  0  0  0  0
  -20.4340   11.0218   26.5205 N   0  0  0  0  0  0  0  0  0  0  0  0
  -19.1990   11.5452   26.2984 N   0  0  0  0  0  0  0  0  0  0  0  0
  -18.4533   11.0333   25.7920 H   0  0  0  0  0  0  0  0  0  0  0  0
  -19.0775   12.7879   26.8094 C   0  0  0  0  0  0  0  0  0  0  0  0
  -18.1863   13.3554   26.7297 H   0  0  0  0  0  0  0  0  0  0  0  0
  -20.2724   13.0655   27.3744 C   0  0  0  0  0  0  0  0  0  0  0  0
  -20.5463   13.9639   27.8671 H   0  0  0  0  0  0  0  0  0  0  0  0
  -25.4523   13.9808   27.5444 C   0  0  0  0  0  0  0  0  0  0  0  0
  -25.8398   13.5975   26.6366 H   0  0  0  0  0  0  0  0  0  0  0  0
  -26.2234   14.8417   28.3256 C   0  0  0  0  0  0  0  0  0  0  0  0
  -27.1998   15.1046   28.0084 H   0  0  0  0  0  0  0  0  0  0  0  0
  -25.7227   15.3597   29.5218 C   0  0  0  0  0  0  0  0  0  0  0  0
  -26.3186   16.0119   30.1076 H   0  0  0  0  0  0  0  0  0  0  0  0
  -24.4370   15.0212   29.9404 C   0  0  0  0  0  0  0  0  0  0  0  0
  -24.0426   15.4132   30.8417 H   0  0  0  0  0  0  0  0  0  0  0  0
  1  2  1  0
  2  3  1  0
  2 23  2  0
  3  4  1  0
  3 17  2  0
  4  5  1  0
  4  6  1  0
  6  7  1  0
  6  8  1  0
  6  9  1  0
  9 10  2  0
  9 15  1  0
 10 11  1  0
 11 12  1  0
 11 13  1  0
 13 14  1  0
 13 15  2  0
 15 16  1  0
 17 18  1  0
 17 19  1  0
 19 20  1  0
 19 21  2  0
 21 22  1  0
 21 23  1  0
 23 24  1  0
M  END
$$$$
