F274_23
     RDKit          3D

 26 27  0  0  0  0  0  0  0  0999 V2000
  -23.5772   11.7357   26.6501 O   0  0  0  0  0  0  0  0  0  0  0  0
  -23.9661   12.6324   27.4093 C   0  0  0  0  0  0  0  0  0  0  0  0
  -23.3142   12.8341   28.6334 N   0  0  0  0  0  0  0  0  0  0  0  0
  -22.1632   12.0185   29.0120 C   0  0  0  0  0  0  0  0  0  0  0  0
  -22.0137   12.1077   30.0946 H   0  0  0  0  0  0  0  0  0  0  0  0
  -22.3686   10.9646   28.7951 H   0  0  0  0  0  0  0  0  0  0  0  0
  -20.9583   12.4790   28.2869 C   0  0  0  0  0  0  0  0  0  0  0  0
  -19.7705   12.1940   28.8253 O   0  0  0  0  0  0  0  0  0  0  0  0
  -18.7872   12.6866   28.0608 N   0  0  0  0  0  0  0  0  0  0  0  0
  -19.3429   13.2723   27.0569 C   0  0  0  0  0  0  0  0  0  0  0  0
  -18.5341   13.9249   26.0068 C   0  0  0  0  0  0  0  0  0  0  0  0
  -19.1614   14.5360   25.3493 H   0  0  0  0  0  0  0  0  0  0  0  0
  -18.0302   13.1734   25.3896 H   0  0  0  0  0  0  0  0  0  0  0  0
  -17.7736   14.5780   26.4469 H   0  0  0  0  0  0  0  0  0  0  0  0
  -20.7226   13.1693   27.1606 C   0  0  0  0  0  0  0  0  0  0  0  0
  -21.4479   13.5560   26.4928 H   0  0  0  0  0  0  0  0  0  0  0  0
  -23.7009   13.7992   29.5410 N   0  0  0  0  0  0  0  0  0  0  0  0
  -24.7076   14.5729   29.2783 C   0  0  0  0  0  0  0  0  0  0  0  0
  -25.1125   15.6150   30.2821 C   0  0  0  0  0  0  0  0  0  0  0  0
  -24.2538   16.2569   30.5036 H   0  0  0  0  0  0  0  0  0  0  0  0
  -25.4338   15.1203   31.2041 H   0  0  0  0  0  0  0  0  0  0  0  0
  -25.9308   16.2359   29.9095 H   0  0  0  0  0  0  0  0  0  0  0  0
  -25.4286   14.4458   28.0554 C   0  0  0  0  0  0  0  0  0  0  0  0
  -26.2445   15.0953   27.8682 H   0  0  0  0  0  0  0  0  0  0  0  0
  -25.0670   13.5005   27.1409 C   0  0  0  0  0  0  0  0  0  0  0  0
  -25.5816   13.3808   26.2242 H   0  0  0  0  0  0  0  0  0  0  0  0
  1  2  2  0
  2  3  1  0
  2 25  1  0
  3  4  1  0
  3 17  1  0
  4  5  1  0
  4  6  1  0
  4  7  1  0
  7  8  1  0
  7 15  2  0
  8  9  1  0
  9 10  2  0
 10 11  1  0
 10 15  1  0
 11 12  1  0
 11 13  1  0
 11 14  1  0
 15 16  1  0
 17 18  2  0
 18 19  1  0
 18 23  1  0
 19 20  1  0
 19 21  1  0
 19 22  1  0
 23 24  1  0
 23 25  2  0
 25 26  1  0
M  END
$$$$
