F274_89
     RDKit          3D

 26 27  0  0  0  0  0  0  0  0999 V2000
  -22.0098   10.4936   27.2040 O   0  0  0  0  0  0  0  0  0  0  0  0
  -21.2481   11.4502   27.0135 C   0  0  0  0  0  0  0  0  0  0  0  0
  -21.6464   12.7389   27.3940 N   0  0  0  0  0  0  0  0  0  0  0  0
  -22.9374   12.9634   28.0392 C   0  0  0  0  0  0  0  0  0  0  0  0
  -23.1957   14.0247   27.9422 H   0  0  0  0  0  0  0  0  0  0  0  0
  -23.7142   12.3884   27.5235 H   0  0  0  0  0  0  0  0  0  0  0  0
  -22.8612   12.5812   29.4667 C   0  0  0  0  0  0  0  0  0  0  0  0
  -22.2640   11.4245   29.7623 O   0  0  0  0  0  0  0  0  0  0  0  0
  -22.2877   11.2180   31.0855 N   0  0  0  0  0  0  0  0  0  0  0  0
  -22.8887   12.2257   31.6172 C   0  0  0  0  0  0  0  0  0  0  0  0
  -23.0829   12.3182   33.0788 C   0  0  0  0  0  0  0  0  0  0  0  0
  -23.7778   13.1253   33.3336 H   0  0  0  0  0  0  0  0  0  0  0  0
  -22.1302   12.5226   33.5791 H   0  0  0  0  0  0  0  0  0  0  0  0
  -23.4913   11.3848   33.4798 H   0  0  0  0  0  0  0  0  0  0  0  0
  -23.2748   13.1161   30.6257 C   0  0  0  0  0  0  0  0  0  0  0  0
  -23.7927   14.0316   30.7501 H   0  0  0  0  0  0  0  0  0  0  0  0
  -20.8620   13.8572   27.1969 N   0  0  0  0  0  0  0  0  0  0  0  0
  -19.6969   13.7443   26.6394 C   0  0  0  0  0  0  0  0  0  0  0  0
  -18.8612   14.9757   26.4325 C   0  0  0  0  0  0  0  0  0  0  0  0
  -18.7183   15.4815   27.3927 H   0  0  0  0  0  0  0  0  0  0  0  0
  -19.3819   15.6527   25.7480 H   0  0  0  0  0  0  0  0  0  0  0  0
  -17.8823   14.7315   26.0127 H   0  0  0  0  0  0  0  0  0  0  0  0
  -19.2045   12.4729   26.2242 C   0  0  0  0  0  0  0  0  0  0  0  0
  -18.2469   12.4127   25.7747 H   0  0  0  0  0  0  0  0  0  0  0  0
  -19.9593   11.3516   26.4076 C   0  0  0  0  0  0  0  0  0  0  0  0
  -19.6225   10.3936   26.1105 H   0  0  0  0  0  0  0  0  0  0  0  0
  1  2  2  0
  2  3  1  0
  2 25  1  0
  3  4  1  0
  3 17  1  0
  4  5  1  0
  4  6  1  0
  4  7  1  0
  7  8  1  0
  7 15  2  0
  8  9  1  0
  9 10  2  0
 10 11  1  0
 10 15  1  0
 11 12  1  0
 11 13  1  0
 11 14  1  0
 15 16  1  0
 17 18  2  0
 18 19  1  0
 18 23  1  0
 19 20  1  0
 19 21  1  0
 19 22  1  0
 23 24  1  0
 23 25  2  0
 25 26  1  0
M  END
$$$$
