F369_35
     RDKit          3D

 32 33  0  0  0  0  0  0  0  0999 V2000
  -19.6609   16.1301   27.6601 O   0  0  0  0  0  0  0  0  0  0  0  0
  -18.8425   15.8460   26.8077 C   0  0  0  0  0  0  0  0  0  0  0  0
  -18.8027   14.5920   26.2672 N   0  0  0  0  0  0  0  0  0  0  0  0
  -18.0702   14.4654   25.5618 H   0  0  0  0  0  0  0  0  0  0  0  0
  -19.6109   13.5034   26.5579 C   0  0  0  0  0  0  0  0  0  0  0  0
  -20.6523   13.4550   27.4141 C   0  0  0  0  0  0  0  0  0  0  0  0
  -21.0893   14.1919   28.0351 H   0  0  0  0  0  0  0  0  0  0  0  0
  -21.1027   12.1795   27.3432 N   0  0  0  0  0  0  0  0  0  0  0  0
  -22.2058   11.5887   28.0711 C   0  0  0  0  0  0  0  0  0  0  0  0
  -22.3230   10.5594   27.7156 H   0  0  0  0  0  0  0  0  0  0  0  0
  -21.9257   11.5501   29.1296 H   0  0  0  0  0  0  0  0  0  0  0  0
  -23.4955   12.3706   27.8957 C   0  0  0  0  0  0  0  0  0  0  0  0
  -23.7966   12.4064   26.8435 H   0  0  0  0  0  0  0  0  0  0  0  0
  -23.3819   13.4027   28.2452 H   0  0  0  0  0  0  0  0  0  0  0  0
  -24.3037   11.9038   28.4665 H   0  0  0  0  0  0  0  0  0  0  0  0
  -20.3798   11.4242   26.4648 N   0  0  0  0  0  0  0  0  0  0  0  0
  -19.4718   12.2391   25.9927 C   0  0  0  0  0  0  0  0  0  0  0  0
  -18.7437   11.9533   25.2787 H   0  0  0  0  0  0  0  0  0  0  0  0
  -17.8101   16.8429   26.3027 C   0  0  0  0  0  0  0  0  0  0  0  0
  -17.9931   16.9732   25.2286 H   0  0  0  0  0  0  0  0  0  0  0  0
  -17.9092   18.2017   27.0085 C   0  0  0  0  0  0  0  0  0  0  0  0
  -18.4376   18.9362   26.3913 H   0  0  0  0  0  0  0  0  0  0  0  0
  -18.4492   18.1352   27.9591 H   0  0  0  0  0  0  0  0  0  0  0  0
  -16.4690   18.6284   27.2544 C   0  0  0  0  0  0  0  0  0  0  0  0
  -16.0604   19.1114   26.3589 H   0  0  0  0  0  0  0  0  0  0  0  0
  -16.3795   19.3276   28.0904 H   0  0  0  0  0  0  0  0  0  0  0  0
  -15.7499   17.3170   27.5163 C   0  0  0  0  0  0  0  0  0  0  0  0
  -15.9525   16.9696   28.5352 H   0  0  0  0  0  0  0  0  0  0  0  0
  -14.6665   17.4064   27.3973 H   0  0  0  0  0  0  0  0  0  0  0  0
  -16.3636   16.3641   26.4979 C   0  0  0  0  0  0  0  0  0  0  0  0
  -16.2792   15.3206   26.8172 H   0  0  0  0  0  0  0  0  0  0  0  0
  -15.8231   16.4570   25.5469 H   0  0  0  0  0  0  0  0  0  0  0  0
  1  2  2  0
  2  3  1  0
  2 19  1  0
  3  4  1  0
  3  5  1  0
  5  6  2  0
  5 17  1  0
  6  7  1  0
  6  8  1  0
  8  9  1  0
  8 16  1  0
  9 10  1  0
  9 11  1  0
  9 12  1  0
 12 13  1  0
 12 14  1  0
 12 15  1  0
 16 17  2  0
 17 18  1  0
 19 20  1  0
 19 21  1  0
 19 30  1  0
 21 22  1  0
 21 23  1  0
 21 24  1  0
 24 25  1  0
 24 26  1  0
 24 27  1  0
 27 28  1  0
 27 29  1  0
 27 30  1  0
 30 31  1  0
 30 32  1  0
M  END
$$$$
