F710_84
     RDKit          3D

 30 31  0  0  0  0  0  0  0  0999 V2000
  -24.7907   12.2200   30.4068 F   0  0  0  0  0  0  0  0  0  0  0  0
  -23.7393   12.3692   29.5882 C   0  0  0  0  0  0  0  0  0  0  0  0
  -22.4720   12.0442   30.0570 C   0  0  0  0  0  0  0  0  0  0  0  0
  -22.3449   11.6886   31.0461 H   0  0  0  0  0  0  0  0  0  0  0  0
  -21.3813   12.2003   29.2077 C   0  0  0  0  0  0  0  0  0  0  0  0
  -20.4039   11.9787   29.5459 H   0  0  0  0  0  0  0  0  0  0  0  0
  -21.5735   12.6737   27.9023 C   0  0  0  0  0  0  0  0  0  0  0  0
  -20.4850   12.8315   27.0542 N   0  0  0  0  0  0  0  0  0  0  0  0
  -19.9913   11.7384   26.2056 C   0  0  0  0  0  0  0  0  0  0  0  0
  -19.0020   11.4292   26.5640 H   0  0  0  0  0  0  0  0  0  0  0  0
  -20.6444   10.8591   26.2311 H   0  0  0  0  0  0  0  0  0  0  0  0
  -19.9003   12.2168   24.7481 C   0  0  0  0  0  0  0  0  0  0  0  0
  -20.9062   12.4142   24.3580 H   0  0  0  0  0  0  0  0  0  0  0  0
  -19.4626   11.4275   24.1283 H   0  0  0  0  0  0  0  0  0  0  0  0
  -19.1509   13.4739   24.6251 N   0  0  0  0  0  0  0  0  0  0  0  0
  -18.0900   13.5299   23.7631 C   0  0  0  0  0  0  0  0  0  0  0  0
  -17.6078   12.5546   23.2124 O   0  0  0  0  0  0  0  0  0  0  0  0
  -17.5863   14.7430   23.5223 N   0  0  0  0  0  0  0  0  0  0  0  0
  -17.0171   14.8040   22.6715 H   0  0  0  0  0  0  0  0  0  0  0  0
  -18.1822   15.5349   23.7730 H   0  0  0  0  0  0  0  0  0  0  0  0
  -19.6439   14.5548   25.4974 C   0  0  0  0  0  0  0  0  0  0  0  0
  -18.9998   15.4356   25.4563 H   0  0  0  0  0  0  0  0  0  0  0  0
  -20.6348   14.8385   25.1250 H   0  0  0  0  0  0  0  0  0  0  0  0
  -19.7344   14.0907   26.9608 C   0  0  0  0  0  0  0  0  0  0  0  0
  -20.1561   14.8915   27.5776 H   0  0  0  0  0  0  0  0  0  0  0  0
  -18.7220   13.9098   27.3440 H   0  0  0  0  0  0  0  0  0  0  0  0
  -22.8623   13.0007   27.4495 C   0  0  0  0  0  0  0  0  0  0  0  0
  -23.0158   13.3514   26.4647 H   0  0  0  0  0  0  0  0  0  0  0  0
  -23.9525   12.8450   28.3001 C   0  0  0  0  0  0  0  0  0  0  0  0
  -24.9330   13.0811   27.9783 H   0  0  0  0  0  0  0  0  0  0  0  0
  1  2  1  0
  2  3  1  0
  2 29  2  0
  3  4  1  0
  3  5  2  0
  5  6  1  0
  5  7  1  0
  7  8  1  0
  7 27  2  0
  8  9  1  0
  8 24  1  0
  9 10  1  0
  9 11  1  0
  9 12  1  0
 12 13  1  0
 12 14  1  0
 12 15  1  0
 15 16  1  0
 15 21  1  0
 16 17  2  0
 16 18  1  0
 18 19  1  0
 18 20  1  0
 21 22  1  0
 21 23  1  0
 21 24  1  0
 24 25  1  0
 24 26  1  0
 27 28  1  0
 27 29  1  0
 29 30  1  0
M  END
$$$$
