F217_3
     RDKit          3D

 28 29  0  0  0  0  0  0  0  0999 V2000
  -19.5719   12.5369   28.3834 O   0  0  0  0  0  0  0  0  0  0  0  0
  -20.5598   12.3244   27.6999 C   0  0  0  0  0  0  0  0  0  0  0  0
  -20.4461   11.6029   26.6027 N   0  0  0  0  0  0  0  0  0  0  0  0
  -19.5258   11.2590   26.3836 H   0  0  0  0  0  0  0  0  0  0  0  0
  -21.2405   11.4142   26.0168 H   0  0  0  0  0  0  0  0  0  0  0  0
  -21.9406   12.8326   28.0189 C   0  0  0  0  0  0  0  0  0  0  0  0
  -21.8784   13.4891   28.8939 H   0  0  0  0  0  0  0  0  0  0  0  0
  -22.2867   13.4411   27.1747 H   0  0  0  0  0  0  0  0  0  0  0  0
  -22.8995   11.6791   28.2818 C   0  0  0  0  0  0  0  0  0  0  0  0
  -22.3633   10.7907   28.6327 H   0  0  0  0  0  0  0  0  0  0  0  0
  -23.4257   11.3809   27.3665 H   0  0  0  0  0  0  0  0  0  0  0  0
  -23.9023   12.0307   29.2695 N   0  0  0  0  0  0  0  0  0  0  0  0
  -23.9961   11.5549   30.5570 C   0  0  0  0  0  0  0  0  0  0  0  0
  -23.0475   10.5660   31.1343 C   0  0  0  0  0  0  0  0  0  0  0  0
  -23.2587   10.4094   32.1963 H   0  0  0  0  0  0  0  0  0  0  0  0
  -22.0153   10.9159   31.0456 H   0  0  0  0  0  0  0  0  0  0  0  0
  -23.1416    9.6010   30.6271 H   0  0  0  0  0  0  0  0  0  0  0  0
  -24.9976   12.0726   31.1870 N   0  0  0  0  0  0  0  0  0  0  0  0
  -25.6014   12.9272   30.2917 C   0  0  0  0  0  0  0  0  0  0  0  0
  -24.9281   12.9099   29.0870 C   0  0  0  0  0  0  0  0  0  0  0  0
  -25.3194   13.6848   27.9854 C   0  0  0  0  0  0  0  0  0  0  0  0
  -24.7872   13.6497   27.0700 H   0  0  0  0  0  0  0  0  0  0  0  0
  -26.4312   14.4993   28.1354 C   0  0  0  0  0  0  0  0  0  0  0  0
  -26.7604   15.1006   27.3286 H   0  0  0  0  0  0  0  0  0  0  0  0
  -27.1329   14.5334   29.3620 C   0  0  0  0  0  0  0  0  0  0  0  0
  -27.9821   15.1619   29.4598 H   0  0  0  0  0  0  0  0  0  0  0  0
  -26.7241   13.7535   30.4353 C   0  0  0  0  0  0  0  0  0  0  0  0
  -27.2431   13.7704   31.3562 H   0  0  0  0  0  0  0  0  0  0  0  0
  1  2  2  0
  2  3  1  0
  2  6  1  0
  3  4  1  0
  3  5  1  0
  6  7  1  0
  6  8  1  0
  6  9  1  0
  9 10  1  0
  9 11  1  0
  9 12  1  0
 12 13  1  0
 12 20  1  0
 13 14  1  0
 13 18  2  0
 14 15  1  0
 14 16  1  0
 14 17  1  0
 18 19  1  0
 19 20  1  0
 19 27  2  0
 20 21  2  0
 21 22  1  0
 21 23  1  0
 23 24  1  0
 23 25  2  0
 25 26  1  0
 25 27  1  0
 27 28  1  0
M  END
$$$$
