F368_48
     RDKit          3D

 29 30  0  0  0  0  0  0  0  0999 V2000
  -19.0796   17.2918   27.6725 O   0  0  0  0  0  0  0  0  0  0  0  0
  -18.3157   17.5552   26.7629 C   0  0  0  0  0  0  0  0  0  0  0  0
  -18.0218   16.6295   25.7991 N   0  0  0  0  0  0  0  0  0  0  0  0
  -17.3580   16.9412   25.0806 H   0  0  0  0  0  0  0  0  0  0  0  0
  -18.5081   15.3336   25.6856 C   0  0  0  0  0  0  0  0  0  0  0  0
  -19.3056   14.6742   26.5513 C   0  0  0  0  0  0  0  0  0  0  0  0
  -19.7358   14.9594   27.4737 H   0  0  0  0  0  0  0  0  0  0  0  0
  -19.4921   13.4531   25.9913 N   0  0  0  0  0  0  0  0  0  0  0  0
  -20.2680   12.3500   26.5150 C   0  0  0  0  0  0  0  0  0  0  0  0
  -20.1675   12.3625   27.6064 H   0  0  0  0  0  0  0  0  0  0  0  0
  -21.3199   12.5368   26.2733 H   0  0  0  0  0  0  0  0  0  0  0  0
  -19.8231   11.0145   25.9469 C   0  0  0  0  0  0  0  0  0  0  0  0
  -20.4338   10.2044   26.3571 H   0  0  0  0  0  0  0  0  0  0  0  0
  -19.9206   10.9989   24.8567 H   0  0  0  0  0  0  0  0  0  0  0  0
  -18.7755   10.8102   26.1917 H   0  0  0  0  0  0  0  0  0  0  0  0
  -18.8393   13.3280   24.7979 N   0  0  0  0  0  0  0  0  0  0  0  0
  -18.2420   14.4781   24.6216 C   0  0  0  0  0  0  0  0  0  0  0  0
  -17.6437   14.7020   23.7768 H   0  0  0  0  0  0  0  0  0  0  0  0
  -17.5899   18.9210   26.5774 C   0  0  0  0  0  0  0  0  0  0  0  0
  -17.7029   19.3192   25.5574 H   0  0  0  0  0  0  0  0  0  0  0  0
  -17.8787   20.0255   27.6313 C   0  0  0  0  0  0  0  0  0  0  0  0
  -18.1528   19.6470   28.6220 H   0  0  0  0  0  0  0  0  0  0  0  0
  -18.6032   20.7876   27.3303 H   0  0  0  0  0  0  0  0  0  0  0  0
  -16.3995   20.4376   27.5126 C   0  0  0  0  0  0  0  0  0  0  0  0
  -15.9131   20.7388   28.4435 H   0  0  0  0  0  0  0  0  0  0  0  0
  -16.2151   21.2008   26.7479 H   0  0  0  0  0  0  0  0  0  0  0  0
  -16.1075   19.0020   27.0363 C   0  0  0  0  0  0  0  0  0  0  0  0
  -15.8461   18.3131   27.8484 H   0  0  0  0  0  0  0  0  0  0  0  0
  -15.3611   18.9135   26.2429 H   0  0  0  0  0  0  0  0  0  0  0  0
  1  2  2  0
  2  3  1  0
  2 19  1  0
  3  4  1  0
  3  5  1  0
  5  6  2  0
  5 17  1  0
  6  7  1  0
  6  8  1  0
  8  9  1  0
  8 16  1  0
  9 10  1  0
  9 11  1  0
  9 12  1  0
 12 13  1  0
 12 14  1  0
 12 15  1  0
 16 17  2  0
 17 18  1  0
 19 20  1  0
 19 21  1  0
 19 27  1  0
 21 22  1  0
 21 23  1  0
 21 24  1  0
 24 25  1  0
 24 26  1  0
 24 27  1  0
 27 28  1  0
 27 29  1  0
M  END
$$$$
