F229_39
     RDKit          3D

 27 28  0  0  0  0  0  0  0  0999 V2000
  -15.7486   18.5285   25.1336 F   0  0  0  0  0  0  0  0  0  0  0  0
  -16.5891   18.7938   26.1465 C   0  0  0  0  0  0  0  0  0  0  0  0
  -17.6468   17.9160   26.4580 C   0  0  0  0  0  0  0  0  0  0  0  0
  -17.8984   16.7364   25.7691 N   0  0  0  0  0  0  0  0  0  0  0  0
  -17.5474   16.6404   24.8235 H   0  0  0  0  0  0  0  0  0  0  0  0
  -18.6314   15.6064   26.3128 C   0  0  0  0  0  0  0  0  0  0  0  0
  -18.2724   15.3950   27.3276 H   0  0  0  0  0  0  0  0  0  0  0  0
  -19.6950   15.8610   26.3922 H   0  0  0  0  0  0  0  0  0  0  0  0
  -18.5126   14.3531   25.5004 C   0  0  0  0  0  0  0  0  0  0  0  0
  -18.6429   13.0434   25.9578 C   0  0  0  0  0  0  0  0  0  0  0  0
  -18.9183   12.5689   27.3352 C   0  0  0  0  0  0  0  0  0  0  0  0
  -19.8100   13.0594   27.7397 H   0  0  0  0  0  0  0  0  0  0  0  0
  -18.0724   12.7965   27.9924 H   0  0  0  0  0  0  0  0  0  0  0  0
  -19.0886   11.4877   27.3653 H   0  0  0  0  0  0  0  0  0  0  0  0
  -18.4901   12.1919   24.9831 N   0  0  0  0  0  0  0  0  0  0  0  0
  -18.2632   12.9519   23.8838 N   0  0  0  0  0  0  0  0  0  0  0  0
  -18.1035   12.5450   22.9432 H   0  0  0  0  0  0  0  0  0  0  0  0
  -18.2751   14.2695   24.1708 C   0  0  0  0  0  0  0  0  0  0  0  0
  -18.1203   15.0131   23.4338 H   0  0  0  0  0  0  0  0  0  0  0  0
  -18.4852   18.2359   27.5275 C   0  0  0  0  0  0  0  0  0  0  0  0
  -19.2767   17.5838   27.7887 H   0  0  0  0  0  0  0  0  0  0  0  0
  -18.2792   19.4103   28.2496 C   0  0  0  0  0  0  0  0  0  0  0  0
  -18.9212   19.6500   29.0591 H   0  0  0  0  0  0  0  0  0  0  0  0
  -17.2336   20.2762   27.9208 C   0  0  0  0  0  0  0  0  0  0  0  0
  -17.0869   21.1665   28.4777 H   0  0  0  0  0  0  0  0  0  0  0  0
  -16.3821   19.9641   26.8631 C   0  0  0  0  0  0  0  0  0  0  0  0
  -15.5807   20.6094   26.6073 H   0  0  0  0  0  0  0  0  0  0  0  0
  1  2  1  0
  2  3  1  0
  2 26  2  0
  3  4  1  0
  3 20  2  0
  4  5  1  0
  4  6  1  0
  6  7  1  0
  6  8  1  0
  6  9  1  0
  9 10  1  0
  9 18  2  0
 10 11  1  0
 10 15  2  0
 11 12  1  0
 11 13  1  0
 11 14  1  0
 15 16  1  0
 16 17  1  0
 16 18  1  0
 18 19  1  0
 20 21  1  0
 20 22  1  0
 22 23  1  0
 22 24  2  0
 24 25  1  0
 24 26  1  0
 26 27  1  0
M  END
$$$$
