F760_64
     RDKit          3D

 17 18  0  0  0  0  0  0  0  0999 V2000
  -17.5644   13.3328   23.4636 Br  0  0  0  0  0  0  0  0  0  0  0  0
  -18.6930   13.2469   24.9784 C   0  0  0  0  0  0  0  0  0  0  0  0
  -19.5128   12.1376   25.1720 C   0  0  0  0  0  0  0  0  0  0  0  0
  -19.5205   11.3336   24.4839 H   0  0  0  0  0  0  0  0  0  0  0  0
  -20.3243   12.1220   26.2984 C   0  0  0  0  0  0  0  0  0  0  0  0
  -21.2132   11.1320   26.6906 N   0  0  0  0  0  0  0  0  0  0  0  0
  -21.4151   10.2481   26.2078 H   0  0  0  0  0  0  0  0  0  0  0  0
  -21.8324   11.4638   27.8480 C   0  0  0  0  0  0  0  0  0  0  0  0
  -22.6462   10.7240   28.3497 O   0  0  0  0  0  0  0  0  0  0  0  0
  -21.3223   12.8259   28.3124 C   0  0  0  0  0  0  0  0  0  0  0  0
  -22.1473   13.5413   28.3429 H   0  0  0  0  0  0  0  0  0  0  0  0
  -20.8258   12.7256   29.2804 H   0  0  0  0  0  0  0  0  0  0  0  0
  -20.3484   13.1478   27.2215 C   0  0  0  0  0  0  0  0  0  0  0  0
  -19.5286   14.2547   27.0296 C   0  0  0  0  0  0  0  0  0  0  0  0
  -19.5303   15.0541   27.7271 H   0  0  0  0  0  0  0  0  0  0  0  0
  -18.7006   14.3010   25.9048 C   0  0  0  0  0  0  0  0  0  0  0  0
  -18.0717   15.1389   25.7478 H   0  0  0  0  0  0  0  0  0  0  0  0
  1  2  1  0
  2  3  1  0
  2 16  2  0
  3  4  1  0
  3  5  2  0
  5  6  1  0
  5 13  1  0
  6  7  1  0
  6  8  1  0
  8  9  2  0
  8 10  1  0
 10 11  1  0
 10 12  1  0
 10 13  1  0
 13 14  2  0
 14 15  1  0
 14 16  1  0
 16 17  1  0
M  END
$$$$
