F14_84
     RDKit          3D

 19 19  0  0  0  0  0  0  0  0999 V2000
  -24.0058   10.5916   32.8376 Br  0  0  0  0  0  0  0  0  0  0  0  0
  -23.3500   10.9917   31.1365 C   0  0  0  0  0  0  0  0  0  0  0  0
  -23.1116   12.2085   30.6019 C   0  0  0  0  0  0  0  0  0  0  0  0
  -23.2392   13.1864   30.9887 H   0  0  0  0  0  0  0  0  0  0  0  0
  -22.6482   11.9777   29.3537 N   0  0  0  0  0  0  0  0  0  0  0  0
  -22.2333   12.9468   28.3591 C   0  0  0  0  0  0  0  0  0  0  0  0
  -22.9629   12.9065   27.5427 H   0  0  0  0  0  0  0  0  0  0  0  0
  -22.2916   13.9337   28.8300 H   0  0  0  0  0  0  0  0  0  0  0  0
  -20.8241   12.6740   27.8558 C   0  0  0  0  0  0  0  0  0  0  0  0
  -20.7824   11.7489   27.2689 H   0  0  0  0  0  0  0  0  0  0  0  0
  -20.1475   12.5815   28.7124 H   0  0  0  0  0  0  0  0  0  0  0  0
  -20.3908   13.7777   27.0558 O   0  0  0  0  0  0  0  0  0  0  0  0
  -19.0538   13.6073   26.6039 C   0  0  0  0  0  0  0  0  0  0  0  0
  -18.7758   14.4836   26.0128 H   0  0  0  0  0  0  0  0  0  0  0  0
  -18.9750   12.7189   25.9706 H   0  0  0  0  0  0  0  0  0  0  0  0
  -18.3697   13.5263   27.4538 H   0  0  0  0  0  0  0  0  0  0  0  0
  -22.5889   10.6459   29.0726 N   0  0  0  0  0  0  0  0  0  0  0  0
  -23.0142   10.0584   30.1617 C   0  0  0  0  0  0  0  0  0  0  0  0
  -23.0888    9.0066   30.2671 H   0  0  0  0  0  0  0  0  0  0  0  0
  1  2  1  0
  2  3  2  0
  2 18  1  0
  3  4  1  0
  3  5  1  0
  5  6  1  0
  5 17  1  0
  6  7  1  0
  6  8  1  0
  6  9  1  0
  9 10  1  0
  9 11  1  0
  9 12  1  0
 12 13  1  0
 13 14  1  0
 13 15  1  0
 13 16  1  0
 17 18  2  0
 18 19  1  0
M  END
$$$$
