F179_67
     RDKit          3D

 29 30  0  0  0  0  0  0  0  0999 V2000
  -18.9669   14.8058   26.3836 C   0  0  0  0  0  0  0  0  0  0  0  0
  -19.7666   15.1103   25.7012 H   0  0  0  0  0  0  0  0  0  0  0  0
  -18.0402   15.3045   26.0779 H   0  0  0  0  0  0  0  0  0  0  0  0
  -19.2086   15.1780   27.3852 H   0  0  0  0  0  0  0  0  0  0  0  0
  -18.7822   13.2917   26.3909 C   0  0  0  0  0  0  0  0  0  0  0  0
  -17.7114   12.9673   27.2782 O   0  0  0  0  0  0  0  0  0  0  0  0
  -17.9952   13.2126   28.1753 H   0  0  0  0  0  0  0  0  0  0  0  0
  -20.0366   12.5777   26.7803 C   0  0  0  0  0  0  0  0  0  0  0  0
  -20.3516   11.2472   26.5296 C   0  0  0  0  0  0  0  0  0  0  0  0
  -19.7322   10.5582   26.0113 H   0  0  0  0  0  0  0  0  0  0  0  0
  -21.5230   10.9370   27.0159 N   0  0  0  0  0  0  0  0  0  0  0  0
  -21.9831   12.0848   27.5893 N   0  0  0  0  0  0  0  0  0  0  0  0
  -23.2716   12.1299   28.2361 C   0  0  0  0  0  0  0  0  0  0  0  0
  -23.6224   11.0928   28.3358 H   0  0  0  0  0  0  0  0  0  0  0  0
  -23.2669   12.7843   29.6168 C   0  0  0  0  0  0  0  0  0  0  0  0
  -22.8291   12.1361   30.3829 H   0  0  0  0  0  0  0  0  0  0  0  0
  -22.6976   13.7215   29.6156 H   0  0  0  0  0  0  0  0  0  0  0  0
  -24.7382   13.0823   29.8902 C   0  0  0  0  0  0  0  0  0  0  0  0
  -25.1892   12.2727   30.4757 H   0  0  0  0  0  0  0  0  0  0  0  0
  -24.8554   14.0062   30.4661 H   0  0  0  0  0  0  0  0  0  0  0  0
  -25.4189   13.1733   28.5241 C   0  0  0  0  0  0  0  0  0  0  0  0
  -25.9092   14.1418   28.3771 H   0  0  0  0  0  0  0  0  0  0  0  0
  -26.1921   12.3995   28.4436 H   0  0  0  0  0  0  0  0  0  0  0  0
  -24.3270   12.9397   27.4857 C   0  0  0  0  0  0  0  0  0  0  0  0
  -23.9265   13.9040   27.1481 H   0  0  0  0  0  0  0  0  0  0  0  0
  -24.7048   12.4147   26.6018 H   0  0  0  0  0  0  0  0  0  0  0  0
  -21.0904   13.0915   27.4563 C   0  0  0  0  0  0  0  0  0  0  0  0
  -21.2701   14.0598   27.8453 H   0  0  0  0  0  0  0  0  0  0  0  0
  -18.4786   12.9603   25.3897 H   0  0  0  0  0  0  0  0  0  0  0  0
  1  2  1  0
  1  3  1  0
  1  4  1  0
  1  5  1  0
  5  6  1  0
  5  8  1  0
  5 29  1  0
  6  7  1  0
  8  9  1  0
  8 27  2  0
  9 10  1  0
  9 11  2  0
 11 12  1  0
 12 13  1  0
 12 27  1  0
 13 14  1  0
 13 15  1  0
 13 24  1  0
 15 16  1  0
 15 17  1  0
 15 18  1  0
 18 19  1  0
 18 20  1  0
 18 21  1  0
 21 22  1  0
 21 23  1  0
 21 24  1  0
 24 25  1  0
 24 26  1  0
 27 28  1  0
M  END
$$$$
