F13_39
     RDKit          3D

 16 16  0  0  0  0  0  0  0  0999 V2000
  -26.4379   14.5422   27.9763 Br  0  0  0  0  0  0  0  0  0  0  0  0
  -24.7907   13.7244   27.6534 C   0  0  0  0  0  0  0  0  0  0  0  0
  -23.6215   13.9304   28.2945 C   0  0  0  0  0  0  0  0  0  0  0  0
  -23.3605   14.5659   29.0997 H   0  0  0  0  0  0  0  0  0  0  0  0
  -22.7282   13.1058   27.7006 N   0  0  0  0  0  0  0  0  0  0  0  0
  -21.3200   12.9452   28.0048 C   0  0  0  0  0  0  0  0  0  0  0  0
  -20.9068   13.9501   28.1449 H   0  0  0  0  0  0  0  0  0  0  0  0
  -21.2524   12.4037   28.9549 H   0  0  0  0  0  0  0  0  0  0  0  0
  -20.5814   12.2120   26.8962 C   0  0  0  0  0  0  0  0  0  0  0  0
  -20.7384   12.7261   25.9437 H   0  0  0  0  0  0  0  0  0  0  0  0
  -20.9156   11.1739   26.7977 H   0  0  0  0  0  0  0  0  0  0  0  0
  -19.1819   12.2197   27.1615 O   0  0  0  0  0  0  0  0  0  0  0  0
  -19.0496   11.7747   28.0170 H   0  0  0  0  0  0  0  0  0  0  0  0
  -23.2968   12.3756   26.7024 N   0  0  0  0  0  0  0  0  0  0  0  0
  -24.5465   12.7605   26.6814 C   0  0  0  0  0  0  0  0  0  0  0  0
  -25.2650   12.3754   26.0048 H   0  0  0  0  0  0  0  0  0  0  0  0
  1  2  1  0
  2  3  2  0
  2 15  1  0
  3  4  1  0
  3  5  1  0
  5  6  1  0
  5 14  1  0
  6  7  1  0
  6  8  1  0
  6  9  1  0
  9 10  1  0
  9 11  1  0
  9 12  1  0
 12 13  1  0
 14 15  2  0
 15 16  1  0
M  END
$$$$
