F368_12
     RDKit          3D

 29 30  0  0  0  0  0  0  0  0999 V2000
  -19.2540   17.1666   27.7297 O   0  0  0  0  0  0  0  0  0  0  0  0
  -18.5254   17.4077   26.7855 C   0  0  0  0  0  0  0  0  0  0  0  0
  -18.2171   16.4403   25.8683 N   0  0  0  0  0  0  0  0  0  0  0  0
  -17.5858   16.7365   25.1150 H   0  0  0  0  0  0  0  0  0  0  0  0
  -18.6508   15.1211   25.8425 C   0  0  0  0  0  0  0  0  0  0  0  0
  -19.3644   14.4700   26.7843 C   0  0  0  0  0  0  0  0  0  0  0  0
  -19.7506   14.7797   27.7182 H   0  0  0  0  0  0  0  0  0  0  0  0
  -19.5292   13.2173   26.2914 N   0  0  0  0  0  0  0  0  0  0  0  0
  -20.2219   12.1082   26.9105 C   0  0  0  0  0  0  0  0  0  0  0  0
  -20.2199   11.2761   26.1970 H   0  0  0  0  0  0  0  0  0  0  0  0
  -19.6422   11.7993   27.7870 H   0  0  0  0  0  0  0  0  0  0  0  0
  -21.6398   12.4702   27.3141 C   0  0  0  0  0  0  0  0  0  0  0  0
  -22.1317   11.6135   27.7846 H   0  0  0  0  0  0  0  0  0  0  0  0
  -21.6457   13.3022   28.0256 H   0  0  0  0  0  0  0  0  0  0  0  0
  -22.2339   12.7700   26.4444 H   0  0  0  0  0  0  0  0  0  0  0  0
  -18.9445   13.0641   25.0664 N   0  0  0  0  0  0  0  0  0  0  0  0
  -18.4111   14.2287   24.8028 C   0  0  0  0  0  0  0  0  0  0  0  0
  -17.8754   14.4380   23.9134 H   0  0  0  0  0  0  0  0  0  0  0  0
  -17.8632   18.7889   26.5022 C   0  0  0  0  0  0  0  0  0  0  0  0
  -18.1110   19.1738   25.5012 H   0  0  0  0  0  0  0  0  0  0  0  0
  -18.0482   19.8966   27.5758 C   0  0  0  0  0  0  0  0  0  0  0  0
  -18.1886   19.5217   28.5954 H   0  0  0  0  0  0  0  0  0  0  0  0
  -18.8236   20.6376   27.3611 H   0  0  0  0  0  0  0  0  0  0  0  0
  -16.6059   20.3437   27.2728 C   0  0  0  0  0  0  0  0  0  0  0  0
  -16.0166   20.6663   28.1344 H   0  0  0  0  0  0  0  0  0  0  0  0
  -16.5368   21.1033   26.4858 H   0  0  0  0  0  0  0  0  0  0  0  0
  -16.3381   18.9110   26.7743 C   0  0  0  0  0  0  0  0  0  0  0  0
  -15.9612   18.2370   27.5529 H   0  0  0  0  0  0  0  0  0  0  0  0
  -15.6930   18.8327   25.8956 H   0  0  0  0  0  0  0  0  0  0  0  0
  1  2  2  0
  2  3  1  0
  2 19  1  0
  3  4  1  0
  3  5  1  0
  5  6  2  0
  5 17  1  0
  6  7  1  0
  6  8  1  0
  8  9  1  0
  8 16  1  0
  9 10  1  0
  9 11  1  0
  9 12  1  0
 12 13  1  0
 12 14  1  0
 12 15  1  0
 16 17  2  0
 17 18  1  0
 19 20  1  0
 19 21  1  0
 19 27  1  0
 21 22  1  0
 21 23  1  0
 21 24  1  0
 24 25  1  0
 24 26  1  0
 24 27  1  0
 27 28  1  0
 27 29  1  0
M  END
$$$$
