F13_1
     RDKit          3D

 16 16  0  0  0  0  0  0  0  0999 V2000
  -18.7280   11.6150   26.6051 Br  0  0  0  0  0  0  0  0  0  0  0  0
  -20.4057   12.2187   27.1594 C   0  0  0  0  0  0  0  0  0  0  0  0
  -21.5548   11.5165   27.2433 C   0  0  0  0  0  0  0  0  0  0  0  0
  -21.7798   10.5036   27.0343 H   0  0  0  0  0  0  0  0  0  0  0  0
  -22.4848   12.3890   27.6953 N   0  0  0  0  0  0  0  0  0  0  0  0
  -23.8908   12.1449   27.9501 C   0  0  0  0  0  0  0  0  0  0  0  0
  -24.0485   11.0643   27.8623 H   0  0  0  0  0  0  0  0  0  0  0  0
  -24.0904   12.4444   28.9850 H   0  0  0  0  0  0  0  0  0  0  0  0
  -24.7820   12.8973   26.9745 C   0  0  0  0  0  0  0  0  0  0  0  0
  -24.3648   13.8898   26.7817 H   0  0  0  0  0  0  0  0  0  0  0  0
  -25.8027   13.0099   27.3547 H   0  0  0  0  0  0  0  0  0  0  0  0
  -24.8299   12.2039   25.7312 O   0  0  0  0  0  0  0  0  0  0  0  0
  -25.3054   11.3689   25.8866 H   0  0  0  0  0  0  0  0  0  0  0  0
  -21.9592   13.6267   27.9074 N   0  0  0  0  0  0  0  0  0  0  0  0
  -20.6990   13.5121   27.5771 C   0  0  0  0  0  0  0  0  0  0  0  0
  -20.0065   14.3122   27.6290 H   0  0  0  0  0  0  0  0  0  0  0  0
  1  2  1  0
  2  3  2  0
  2 15  1  0
  3  4  1  0
  3  5  1  0
  5  6  1  0
  5 14  1  0
  6  7  1  0
  6  8  1  0
  6  9  1  0
  9 10  1  0
  9 11  1  0
  9 12  1  0
 12 13  1  0
 14 15  2  0
 15 16  1  0
M  END
$$$$
