F96_7
     RDKit          3D

 19 19  0  0  0  0  0  0  0  0999 V2000
  -16.0415   15.8019   27.7287 O   0  0  0  0  0  0  0  0  0  0  0  0
  -16.0964   16.3880   26.6571 C   0  0  0  0  0  0  0  0  0  0  0  0
  -17.1701   16.3424   25.8812 N   0  0  0  0  0  0  0  0  0  0  0  0
  -17.1783   16.8270   25.0002 H   0  0  0  0  0  0  0  0  0  0  0  0
  -18.3567   15.6017   26.2534 C   0  0  0  0  0  0  0  0  0  0  0  0
  -18.3161   15.3977   27.3289 H   0  0  0  0  0  0  0  0  0  0  0  0
  -19.2366   16.2253   26.0616 H   0  0  0  0  0  0  0  0  0  0  0  0
  -18.4051   14.3410   25.4675 C   0  0  0  0  0  0  0  0  0  0  0  0
  -18.1717   14.1935   24.1420 C   0  0  0  0  0  0  0  0  0  0  0  0
  -17.9155   14.8935   23.3888 H   0  0  0  0  0  0  0  0  0  0  0  0
  -18.3285   12.8770   23.8863 N   0  0  0  0  0  0  0  0  0  0  0  0
  -18.2154   12.4295   22.9576 H   0  0  0  0  0  0  0  0  0  0  0  0
  -18.6622   12.1796   25.0034 N   0  0  0  0  0  0  0  0  0  0  0  0
  -18.7042   13.0722   25.9539 C   0  0  0  0  0  0  0  0  0  0  0  0
  -18.9429   12.8371   26.9609 H   0  0  0  0  0  0  0  0  0  0  0  0
  -14.9388   17.1824   26.1193 C   0  0  0  0  0  0  0  0  0  0  0  0
  -15.2793   17.9625   25.4326 H   0  0  0  0  0  0  0  0  0  0  0  0
  -14.2589   16.5105   25.5901 H   0  0  0  0  0  0  0  0  0  0  0  0
  -14.4094   17.6589   26.9491 H   0  0  0  0  0  0  0  0  0  0  0  0
  1  2  2  0
  2  3  1  0
  2 16  1  0
  3  4  1  0
  3  5  1  0
  5  6  1  0
  5  7  1  0
  5  8  1  0
  8  9  2  0
  8 14  1  0
  9 10  1  0
  9 11  1  0
 11 12  1  0
 11 13  1  0
 13 14  2  0
 14 15  1  0
 16 17  1  0
 16 18  1  0
 16 19  1  0
M  END
$$$$
