F650_78
     RDKit          3D

 23 24  0  0  0  0  0  0  0  0999 V2000
  -20.6952   14.7756   27.9647 O   0  0  0  0  0  0  0  0  0  0  0  0
  -20.9124   13.5679   27.9663 C   0  0  0  0  0  0  0  0  0  0  0  0
  -22.0827   13.1409   28.5723 N   0  0  0  0  0  0  0  0  0  0  0  0
  -22.5260   11.7703   28.8031 C   0  0  0  0  0  0  0  0  0  0  0  0
  -22.5432   11.1912   27.8791 H   0  0  0  0  0  0  0  0  0  0  0  0
  -21.8312   11.3050   29.5102 H   0  0  0  0  0  0  0  0  0  0  0  0
  -23.9267   11.9033   29.3894 C   0  0  0  0  0  0  0  0  0  0  0  0
  -24.6691   11.9156   28.5818 H   0  0  0  0  0  0  0  0  0  0  0  0
  -24.1769   11.0866   30.0703 H   0  0  0  0  0  0  0  0  0  0  0  0
  -23.8917   13.2618   30.0723 C   0  0  0  0  0  0  0  0  0  0  0  0
  -23.3958   13.1740   31.0464 H   0  0  0  0  0  0  0  0  0  0  0  0
  -24.8860   13.6890   30.2283 H   0  0  0  0  0  0  0  0  0  0  0  0
  -23.0387   14.0901   29.1258 C   0  0  0  0  0  0  0  0  0  0  0  0
  -22.5369   14.9200   29.6313 H   0  0  0  0  0  0  0  0  0  0  0  0
  -23.6324   14.4876   28.2942 H   0  0  0  0  0  0  0  0  0  0  0  0
  -19.9694   12.6098   27.4219 C   0  0  0  0  0  0  0  0  0  0  0  0
  -20.0155   12.1432   26.1416 C   0  0  0  0  0  0  0  0  0  0  0  0
  -20.6698   12.3685   25.3395 H   0  0  0  0  0  0  0  0  0  0  0  0
  -19.0111   11.2591   26.0326 N   0  0  0  0  0  0  0  0  0  0  0  0
  -18.7797   10.7245   25.1732 H   0  0  0  0  0  0  0  0  0  0  0  0
  -18.3157   11.1265   27.1962 N   0  0  0  0  0  0  0  0  0  0  0  0
  -18.9060   11.9362   28.0284 C   0  0  0  0  0  0  0  0  0  0  0  0
  -18.6068   12.0435   29.0398 H   0  0  0  0  0  0  0  0  0  0  0  0
  1  2  2  0
  2  3  1  0
  2 16  1  0
  3  4  1  0
  3 13  1  0
  4  5  1  0
  4  6  1  0
  4  7  1  0
  7  8  1  0
  7  9  1  0
  7 10  1  0
 10 11  1  0
 10 12  1  0
 10 13  1  0
 13 14  1  0
 13 15  1  0
 16 17  2  0
 16 22  1  0
 17 18  1  0
 17 19  1  0
 19 20  1  0
 19 21  1  0
 21 22  2  0
 22 23  1  0
M  END
$$$$
