F709_47
     RDKit          3D

 29 30  0  0  0  0  0  0  0  0999 V2000
  -15.8246   15.3100   25.7412 O   0  0  0  0  0  0  0  0  0  0  0  0
  -16.9763   15.6385   25.9740 C   0  0  0  0  0  0  0  0  0  0  0  0
  -17.2493   16.9048   26.2953 N   0  0  0  0  0  0  0  0  0  0  0  0
  -16.9407   17.1810   27.2339 H   0  0  0  0  0  0  0  0  0  0  0  0
  -17.1862   17.5885   25.5370 H   0  0  0  0  0  0  0  0  0  0  0  0
  -18.0427   14.7802   25.9144 N   0  0  0  0  0  0  0  0  0  0  0  0
  -17.8482   13.4441   25.3442 C   0  0  0  0  0  0  0  0  0  0  0  0
  -16.8055   13.2799   25.0531 H   0  0  0  0  0  0  0  0  0  0  0  0
  -18.4552   13.3950   24.4320 H   0  0  0  0  0  0  0  0  0  0  0  0
  -18.2893   12.3596   26.3268 C   0  0  0  0  0  0  0  0  0  0  0  0
  -17.6521   12.3823   27.2191 H   0  0  0  0  0  0  0  0  0  0  0  0
  -18.1703   11.3733   25.8698 H   0  0  0  0  0  0  0  0  0  0  0  0
  -19.6662   12.5839   26.7926 N   0  0  0  0  0  0  0  0  0  0  0  0
  -20.6077   11.5624   26.7139 C   0  0  0  0  0  0  0  0  0  0  0  0
  -20.3236   10.6111   25.9854 O   0  0  0  0  0  0  0  0  0  0  0  0
  -21.8530   11.6248   27.4463 C   0  0  0  0  0  0  0  0  0  0  0  0
  -23.0516   11.5001   26.8006 O   0  0  0  0  0  0  0  0  0  0  0  0
  -24.0369   11.6535   27.7126 C   0  0  0  0  0  0  0  0  0  0  0  0
  -25.0530   11.5810   27.4196 H   0  0  0  0  0  0  0  0  0  0  0  0
  -23.4963   11.8924   28.9296 C   0  0  0  0  0  0  0  0  0  0  0  0
  -24.0307   12.0543   29.8293 H   0  0  0  0  0  0  0  0  0  0  0  0
  -22.0908   11.8912   28.7626 C   0  0  0  0  0  0  0  0  0  0  0  0
  -21.3478   12.0608   29.4998 H   0  0  0  0  0  0  0  0  0  0  0  0
  -19.9148   13.9294   27.3284 C   0  0  0  0  0  0  0  0  0  0  0  0
  -20.9783   14.1053   27.4996 H   0  0  0  0  0  0  0  0  0  0  0  0
  -19.3921   13.9894   28.2899 H   0  0  0  0  0  0  0  0  0  0  0  0
  -19.4120   15.0362   26.3831 C   0  0  0  0  0  0  0  0  0  0  0  0
  -19.4948   15.9943   26.9009 H   0  0  0  0  0  0  0  0  0  0  0  0
  -20.0459   15.0796   25.4891 H   0  0  0  0  0  0  0  0  0  0  0  0
  1  2  2  0
  2  3  1  0
  2  6  1  0
  3  4  1  0
  3  5  1  0
  6  7  1  0
  6 27  1  0
  7  8  1  0
  7  9  1  0
  7 10  1  0
 10 11  1  0
 10 12  1  0
 10 13  1  0
 13 14  1  0
 13 24  1  0
 14 15  2  0
 14 16  1  0
 16 17  1  0
 16 22  2  0
 17 18  1  0
 18 19  1  0
 18 20  2  0
 20 21  1  0
 20 22  1  0
 22 23  1  0
 24 25  1  0
 24 26  1  0
 24 27  1  0
 27 28  1  0
 27 29  1  0
M  END
$$$$
