F14_32
     RDKit          3D

 19 19  0  0  0  0  0  0  0  0999 V2000
  -22.6440   11.5494   27.8005 Br  0  0  0  0  0  0  0  0  0  0  0  0
  -23.9170   12.9010   27.6097 C   0  0  0  0  0  0  0  0  0  0  0  0
  -24.0510   14.0270   28.3427 C   0  0  0  0  0  0  0  0  0  0  0  0
  -23.5039   14.3999   29.1696 H   0  0  0  0  0  0  0  0  0  0  0  0
  -25.1137   14.6801   27.8229 N   0  0  0  0  0  0  0  0  0  0  0  0
  -25.6758   15.9496   28.2392 C   0  0  0  0  0  0  0  0  0  0  0  0
  -25.1873   16.7308   27.6463 H   0  0  0  0  0  0  0  0  0  0  0  0
  -26.7394   15.9292   27.9798 H   0  0  0  0  0  0  0  0  0  0  0  0
  -25.4908   16.1893   29.7298 C   0  0  0  0  0  0  0  0  0  0  0  0
  -26.1170   17.0177   30.0812 H   0  0  0  0  0  0  0  0  0  0  0  0
  -24.4405   16.4295   29.9283 H   0  0  0  0  0  0  0  0  0  0  0  0
  -25.8221   14.9933   30.4410 O   0  0  0  0  0  0  0  0  0  0  0  0
  -25.5479   15.1142   31.8306 C   0  0  0  0  0  0  0  0  0  0  0  0
  -25.8070   14.1699   32.3161 H   0  0  0  0  0  0  0  0  0  0  0  0
  -26.1531   15.9116   32.2714 H   0  0  0  0  0  0  0  0  0  0  0  0
  -24.4847   15.3130   31.9953 H   0  0  0  0  0  0  0  0  0  0  0  0
  -25.6675   13.9997   26.7806 N   0  0  0  0  0  0  0  0  0  0  0  0
  -24.9318   12.9244   26.6590 C   0  0  0  0  0  0  0  0  0  0  0  0
  -25.1046   12.1781   25.9268 H   0  0  0  0  0  0  0  0  0  0  0  0
  1  2  1  0
  2  3  2  0
  2 18  1  0
  3  4  1  0
  3  5  1  0
  5  6  1  0
  5 17  1  0
  6  7  1  0
  6  8  1  0
  6  9  1  0
  9 10  1  0
  9 11  1  0
  9 12  1  0
 12 13  1  0
 13 14  1  0
 13 15  1  0
 13 16  1  0
 17 18  2  0
 18 19  1  0
M  END
$$$$
