F205_15
     RDKit          3D

 20 20  0  0  0  0  0  0  0  0999 V2000
  -16.5882   14.9975   24.8190 O   0  0  0  0  0  0  0  0  0  0  0  0
  -17.5435   14.2165   24.9967 C   0  0  0  0  0  0  0  0  0  0  0  0
  -18.2023   14.2184   26.2413 N   0  0  0  0  0  0  0  0  0  0  0  0
  -17.7523   15.1326   27.2865 C   0  0  0  0  0  0  0  0  0  0  0  0
  -18.5789   15.7895   27.5737 H   0  0  0  0  0  0  0  0  0  0  0  0
  -16.9213   15.7631   26.9580 H   0  0  0  0  0  0  0  0  0  0  0  0
  -17.4142   14.5526   28.1512 H   0  0  0  0  0  0  0  0  0  0  0  0
  -19.2823   13.3407   26.4897 C   0  0  0  0  0  0  0  0  0  0  0  0
  -19.9503   13.3452   27.8365 C   0  0  0  0  0  0  0  0  0  0  0  0
  -19.2364   13.0836   28.6244 H   0  0  0  0  0  0  0  0  0  0  0  0
  -20.7676   12.6177   27.8874 H   0  0  0  0  0  0  0  0  0  0  0  0
  -20.3796   14.3274   28.0556 H   0  0  0  0  0  0  0  0  0  0  0  0
  -19.7155   12.5067   25.4965 C   0  0  0  0  0  0  0  0  0  0  0  0
  -20.5284   11.8509   25.6743 H   0  0  0  0  0  0  0  0  0  0  0  0
  -19.0962   12.4841   24.2177 C   0  0  0  0  0  0  0  0  0  0  0  0
  -19.4498   11.8222   23.4701 H   0  0  0  0  0  0  0  0  0  0  0  0
  -18.0375   13.3068   23.9710 C   0  0  0  0  0  0  0  0  0  0  0  0
  -17.3822   13.3333   22.7648 N   0  0  0  0  0  0  0  0  0  0  0  0
  -17.6613   12.7355   22.0004 H   0  0  0  0  0  0  0  0  0  0  0  0
  -16.6032   13.9806   22.6693 H   0  0  0  0  0  0  0  0  0  0  0  0
  1  2  2  0
  2  3  1  0
  2 17  1  0
  3  4  1  0
  3  8  1  0
  4  5  1  0
  4  6  1  0
  4  7  1  0
  8  9  1  0
  8 13  2  0
  9 10  1  0
  9 11  1  0
  9 12  1  0
 13 14  1  0
 13 15  1  0
 15 16  1  0
 15 17  2  0
 17 18  1  0
 18 19  1  0
 18 20  1  0
M  END
$$$$
