F529_55
     RDKit          3D

 23 23  0  0  0  0  0  0  0  0999 V2000
  -20.5316   13.1241   27.7803 S   0  0  0  0  0  0  0  0  0  0  0  0
  -19.7408   12.3281   28.7053 O   0  0  0  0  0  0  0  0  0  0  0  0
  -20.9639   14.4617   28.1376 O   0  0  0  0  0  0  0  0  0  0  0  0
  -21.9658   12.1748   27.3470 C   0  0  0  0  0  0  0  0  0  0  0  0
  -21.6479   11.2002   26.9710 H   0  0  0  0  0  0  0  0  0  0  0  0
  -22.5396   12.7140   26.5909 H   0  0  0  0  0  0  0  0  0  0  0  0
  -22.5708   12.0453   28.2463 H   0  0  0  0  0  0  0  0  0  0  0  0
  -19.6446   13.2386   26.2519 C   0  0  0  0  0  0  0  0  0  0  0  0
  -18.6779   14.2287   26.0043 C   0  0  0  0  0  0  0  0  0  0  0  0
  -18.4002   15.1803   26.9824 N   0  0  0  0  0  0  0  0  0  0  0  0
  -19.1185   15.3282   27.7061 H   0  0  0  0  0  0  0  0  0  0  0  0
  -17.2105   15.9939   27.0486 C   0  0  0  0  0  0  0  0  0  0  0  0
  -16.3099   15.3735   27.1083 H   0  0  0  0  0  0  0  0  0  0  0  0
  -17.2447   16.6180   27.9472 H   0  0  0  0  0  0  0  0  0  0  0  0
  -17.1388   16.6608   26.1839 H   0  0  0  0  0  0  0  0  0  0  0  0
  -17.9777   14.2403   24.7906 C   0  0  0  0  0  0  0  0  0  0  0  0
  -17.2285   14.9640   24.6081 H   0  0  0  0  0  0  0  0  0  0  0  0
  -18.2637   13.2965   23.8133 C   0  0  0  0  0  0  0  0  0  0  0  0
  -17.7394   13.3115   22.8922 H   0  0  0  0  0  0  0  0  0  0  0  0
  -19.2401   12.3316   24.0382 C   0  0  0  0  0  0  0  0  0  0  0  0
  -19.4624   11.6162   23.2869 H   0  0  0  0  0  0  0  0  0  0  0  0
  -19.9216   12.3037   25.2513 C   0  0  0  0  0  0  0  0  0  0  0  0
  -20.6613   11.5622   25.4183 H   0  0  0  0  0  0  0  0  0  0  0  0
  1  2  2  0
  1  3  2  0
  1  4  1  0
  1  8  1  0
  4  5  1  0
  4  6  1  0
  4  7  1  0
  8  9  1  0
  8 22  2  0
  9 10  1  0
  9 16  2  0
 10 11  1  0
 10 12  1  0
 12 13  1  0
 12 14  1  0
 12 15  1  0
 16 17  1  0
 16 18  1  0
 18 19  1  0
 18 20  2  0
 20 21  1  0
 20 22  1  0
 22 23  1  0
M  END
$$$$
