F367_38
     RDKit          3D

 31 32  0  0  0  0  0  0  0  0999 V2000
  -23.4528   12.4256   26.8488 O   0  0  0  0  0  0  0  0  0  0  0  0
  -23.4709   13.1802   27.8125 C   0  0  0  0  0  0  0  0  0  0  0  0
  -22.4439   13.0669   28.7012 N   0  0  0  0  0  0  0  0  0  0  0  0
  -22.3527   13.7343   29.4762 H   0  0  0  0  0  0  0  0  0  0  0  0
  -21.4280   12.0410   28.5772 C   0  0  0  0  0  0  0  0  0  0  0  0
  -21.9254   11.0694   28.4763 H   0  0  0  0  0  0  0  0  0  0  0  0
  -20.8340   12.0218   29.4980 H   0  0  0  0  0  0  0  0  0  0  0  0
  -20.5814   12.3335   27.3903 C   0  0  0  0  0  0  0  0  0  0  0  0
  -20.0118   13.5177   27.0642 C   0  0  0  0  0  0  0  0  0  0  0  0
  -20.0219   14.4601   27.5446 H   0  0  0  0  0  0  0  0  0  0  0  0
  -19.3508   13.3040   25.9046 N   0  0  0  0  0  0  0  0  0  0  0  0
  -18.5757   14.2508   25.1308 C   0  0  0  0  0  0  0  0  0  0  0  0
  -19.2456   15.0640   24.8302 H   0  0  0  0  0  0  0  0  0  0  0  0
  -17.8122   14.6726   25.7928 H   0  0  0  0  0  0  0  0  0  0  0  0
  -17.9396   13.6116   23.9098 C   0  0  0  0  0  0  0  0  0  0  0  0
  -18.7007   13.1843   23.2479 H   0  0  0  0  0  0  0  0  0  0  0  0
  -17.2566   12.8050   24.1960 H   0  0  0  0  0  0  0  0  0  0  0  0
  -17.3713   14.3556   23.3436 H   0  0  0  0  0  0  0  0  0  0  0  0
  -19.4800   12.0204   25.4838 N   0  0  0  0  0  0  0  0  0  0  0  0
  -20.2264   11.4427   26.3847 C   0  0  0  0  0  0  0  0  0  0  0  0
  -20.5071   10.4209   26.3358 H   0  0  0  0  0  0  0  0  0  0  0  0
  -24.5122   14.2071   28.0085 C   0  0  0  0  0  0  0  0  0  0  0  0
  -25.6849   14.1099   27.2489 C   0  0  0  0  0  0  0  0  0  0  0  0
  -25.7974   13.3133   26.5555 H   0  0  0  0  0  0  0  0  0  0  0  0
  -26.6820   14.9904   27.3560 N   0  0  0  0  0  0  0  0  0  0  0  0
  -26.5800   16.0023   28.2153 C   0  0  0  0  0  0  0  0  0  0  0  0
  -27.3895   16.6857   28.2776 H   0  0  0  0  0  0  0  0  0  0  0  0
  -25.4528   16.1689   29.0154 C   0  0  0  0  0  0  0  0  0  0  0  0
  -25.4027   16.9802   29.6936 H   0  0  0  0  0  0  0  0  0  0  0  0
  -24.4023   15.2654   28.9194 C   0  0  0  0  0  0  0  0  0  0  0  0
  -23.5463   15.3796   29.5320 H   0  0  0  0  0  0  0  0  0  0  0  0
  1  2  2  0
  2  3  1  0
  2 22  1  0
  3  4  1  0
  3  5  1  0
  5  6  1  0
  5  7  1  0
  5  8  1  0
  8  9  2  0
  8 20  1  0
  9 10  1  0
  9 11  1  0
 11 12  1  0
 11 19  1  0
 12 13  1  0
 12 14  1  0
 12 15  1  0
 15 16  1  0
 15 17  1  0
 15 18  1  0
 19 20  2  0
 20 21  1  0
 22 23  1  0
 22 30  2  0
 23 24  1  0
 23 25  2  0
 25 26  1  0
 26 27  1  0
 26 28  2  0
 28 29  1  0
 28 30  1  0
 30 31  1  0
M  END
$$$$
