F503_90
     RDKit          3D

 29 30  0  0  0  0  0  0  0  0999 V2000
  -23.7784   13.0657   26.2406 F   0  0  0  0  0  0  0  0  0  0  0  0
  -23.1797   12.6727   27.3753 C   0  0  0  0  0  0  0  0  0  0  0  0
  -21.8099   12.8892   27.5411 C   0  0  0  0  0  0  0  0  0  0  0  0
  -20.9877   13.5697   26.4759 C   0  0  0  0  0  0  0  0  0  0  0  0
  -20.9278   14.6474   26.6752 H   0  0  0  0  0  0  0  0  0  0  0  0
  -21.5313   13.4876   25.5249 H   0  0  0  0  0  0  0  0  0  0  0  0
  -19.5814   12.9994   26.3244 C   0  0  0  0  0  0  0  0  0  0  0  0
  -18.4845   13.7780   26.9783 C   0  0  0  0  0  0  0  0  0  0  0  0
  -17.8845   13.3960   27.9626 O   0  0  0  0  0  0  0  0  0  0  0  0
  -18.1787   14.9800   26.4308 N   0  0  0  0  0  0  0  0  0  0  0  0
  -18.7307   15.2906   25.6436 H   0  0  0  0  0  0  0  0  0  0  0  0
  -17.1267   15.8290   26.9297 C   0  0  0  0  0  0  0  0  0  0  0  0
  -17.3851   16.1621   27.9382 H   0  0  0  0  0  0  0  0  0  0  0  0
  -16.1891   15.2685   26.9596 H   0  0  0  0  0  0  0  0  0  0  0  0
  -17.0267   16.6906   26.2649 H   0  0  0  0  0  0  0  0  0  0  0  0
  -19.1990   12.1539   25.1059 C   0  0  0  0  0  0  0  0  0  0  0  0
  -18.1704   12.1896   24.7586 H   0  0  0  0  0  0  0  0  0  0  0  0
  -19.9118   11.9932   24.3064 H   0  0  0  0  0  0  0  0  0  0  0  0
  -19.4662   11.4756   26.4069 C   0  0  0  0  0  0  0  0  0  0  0  0
  -18.6239   11.0509   26.9421 H   0  0  0  0  0  0  0  0  0  0  0  0
  -20.3712   10.8843   26.4887 H   0  0  0  0  0  0  0  0  0  0  0  0
  -21.2191   12.4563   28.7288 C   0  0  0  0  0  0  0  0  0  0  0  0
  -20.1816   12.5987   28.8908 H   0  0  0  0  0  0  0  0  0  0  0  0
  -21.9864   11.8292   29.7113 C   0  0  0  0  0  0  0  0  0  0  0  0
  -21.5260   11.5040   30.6111 H   0  0  0  0  0  0  0  0  0  0  0  0
  -23.3530   11.6264   29.5224 C   0  0  0  0  0  0  0  0  0  0  0  0
  -23.9286   11.1489   30.2746 H   0  0  0  0  0  0  0  0  0  0  0  0
  -23.9578   12.0508   28.3439 C   0  0  0  0  0  0  0  0  0  0  0  0
  -24.9940   11.9051   28.1812 H   0  0  0  0  0  0  0  0  0  0  0  0
  1  2  1  0
  2  3  1  0
  2 28  2  0
  3  4  1  0
  3 22  2  0
  4  5  1  0
  4  6  1  0
  4  7  1  0
  7  8  1  0
  7 16  1  0
  7 19  1  0
  8  9  2  0
  8 10  1  0
 10 11  1  0
 10 12  1  0
 12 13  1  0
 12 14  1  0
 12 15  1  0
 16 17  1  0
 16 18  1  0
 16 19  1  0
 19 20  1  0
 19 21  1  0
 22 23  1  0
 22 24  1  0
 24 25  1  0
 24 26  2  0
 26 27  1  0
 26 28  1  0
 28 29  1  0
M  END
$$$$
