F666_57
     RDKit          3D

 35 37  0  0  0  0  0  0  0  0999 V2000
  -14.7529   19.5038   25.4102 F   0  0  0  0  0  0  0  0  0  0  0  0
  -15.6370   18.5032   25.5293 C   0  0  0  0  0  0  0  0  0  0  0  0
  -15.1695   17.1956   25.5715 C   0  0  0  0  0  0  0  0  0  0  0  0
  -14.1304   17.0011   25.5106 H   0  0  0  0  0  0  0  0  0  0  0  0
  -16.0861   16.1556   25.6938 C   0  0  0  0  0  0  0  0  0  0  0  0
  -15.7345   15.1617   25.7264 H   0  0  0  0  0  0  0  0  0  0  0  0
  -17.4626   16.4367   25.7620 C   0  0  0  0  0  0  0  0  0  0  0  0
  -18.3833   15.4017   25.8665 N   0  0  0  0  0  0  0  0  0  0  0  0
  -19.3644   15.3202   26.9590 C   0  0  0  0  0  0  0  0  0  0  0  0
  -19.2335   16.0990   27.7170 H   0  0  0  0  0  0  0  0  0  0  0  0
  -20.3623   15.4725   26.5292 H   0  0  0  0  0  0  0  0  0  0  0  0
  -19.3086   13.9365   27.6257 C   0  0  0  0  0  0  0  0  0  0  0  0
  -20.0931   13.8601   28.3821 H   0  0  0  0  0  0  0  0  0  0  0  0
  -18.3472   13.8046   28.1356 H   0  0  0  0  0  0  0  0  0  0  0  0
  -19.4125   12.8640   26.6269 N   0  0  0  0  0  0  0  0  0  0  0  0
  -20.3334   11.8435   26.6622 C   0  0  0  0  0  0  0  0  0  0  0  0
  -20.3118   11.0045   25.7805 O   0  0  0  0  0  0  0  0  0  0  0  0
  -21.3189   11.7861   27.7651 C   0  0  0  0  0  0  0  0  0  0  0  0
  -20.8859   11.9217   28.7514 H   0  0  0  0  0  0  0  0  0  0  0  0
  -22.4777   10.8166   27.6962 C   0  0  0  0  0  0  0  0  0  0  0  0
  -22.5739   10.1920   26.8151 H   0  0  0  0  0  0  0  0  0  0  0  0
  -22.7906   10.3365   28.6154 H   0  0  0  0  0  0  0  0  0  0  0  0
  -22.7282   12.2861   27.5468 C   0  0  0  0  0  0  0  0  0  0  0  0
  -23.0036   12.6500   26.5629 H   0  0  0  0  0  0  0  0  0  0  0  0
  -23.2146   12.8040   28.3647 H   0  0  0  0  0  0  0  0  0  0  0  0
  -18.4229   12.9553   25.5458 C   0  0  0  0  0  0  0  0  0  0  0  0
  -17.4403   12.7916   26.0030 H   0  0  0  0  0  0  0  0  0  0  0  0
  -18.5710   12.1702   24.7977 H   0  0  0  0  0  0  0  0  0  0  0  0
  -18.4588   14.3317   24.8587 C   0  0  0  0  0  0  0  0  0  0  0  0
  -19.3917   14.4441   24.2940 H   0  0  0  0  0  0  0  0  0  0  0  0
  -17.6288   14.3693   24.1446 H   0  0  0  0  0  0  0  0  0  0  0  0
  -17.9054   17.7694   25.7388 C   0  0  0  0  0  0  0  0  0  0  0  0
  -18.9355   17.9889   25.8369 H   0  0  0  0  0  0  0  0  0  0  0  0
  -16.9883   18.8085   25.6134 C   0  0  0  0  0  0  0  0  0  0  0  0
  -17.3082   19.8170   25.5915 H   0  0  0  0  0  0  0  0  0  0  0  0
  1  2  1  0
  2  3  1  0
  2 34  2  0
  3  4  1  0
  3  5  2  0
  5  6  1  0
  5  7  1  0
  7  8  1  0
  7 32  2  0
  8  9  1  0
  8 29  1  0
  9 10  1  0
  9 11  1  0
  9 12  1  0
 12 13  1  0
 12 14  1  0
 12 15  1  0
 15 16  1  0
 15 26  1  0
 16 17  2  0
 16 18  1  0
 18 19  1  0
 18 20  1  0
 18 23  1  0
 20 21  1  0
 20 22  1  0
 20 23  1  0
 23 24  1  0
 23 25  1  0
 26 27  1  0
 26 28  1  0
 26 29  1  0
 29 30  1  0
 29 31  1  0
 32 33  1  0
 32 34  1  0
 34 35  1  0
M  END
$$$$
