F11_70
     RDKit          3D

 16 17  0  0  0  0  0  0  0  0999 V2000
  -23.3176   12.8963   27.1919 Br  0  0  0  0  0  0  0  0  0  0  0  0
  -23.1889   12.1995   28.9498 C   0  0  0  0  0  0  0  0  0  0  0  0
  -23.2937   13.0058   30.1161 C   0  0  0  0  0  0  0  0  0  0  0  0
  -23.1797   12.3599   31.3708 C   0  0  0  0  0  0  0  0  0  0  0  0
  -22.9778   11.0142   31.4685 N   0  0  0  0  0  0  0  0  0  0  0  0
  -22.8842   10.2900   30.3906 C   0  0  0  0  0  0  0  0  0  0  0  0
  -22.7276    9.2443   30.4978 H   0  0  0  0  0  0  0  0  0  0  0  0
  -22.9849   10.8512   29.1033 C   0  0  0  0  0  0  0  0  0  0  0  0
  -22.9020   10.2188   28.2568 H   0  0  0  0  0  0  0  0  0  0  0  0
  -23.2674   13.0536   32.5423 N   0  0  0  0  0  0  0  0  0  0  0  0
  -23.4606   14.3431   32.5224 C   0  0  0  0  0  0  0  0  0  0  0  0
  -23.5245   14.8568   33.4502 H   0  0  0  0  0  0  0  0  0  0  0  0
  -23.5852   15.0630   31.3151 C   0  0  0  0  0  0  0  0  0  0  0  0
  -23.7421   16.1104   31.3526 H   0  0  0  0  0  0  0  0  0  0  0  0
  -23.5040   14.4091   30.1123 C   0  0  0  0  0  0  0  0  0  0  0  0
  -23.5970   14.9475   29.2046 H   0  0  0  0  0  0  0  0  0  0  0  0
  1  2  1  0
  2  3  1  0
  2  8  2  0
  3  4  1  0
  3 15  2  0
  4  5  1  0
  4 10  2  0
  5  6  2  0
  6  7  1  0
  6  8  1  0
  8  9  1  0
 10 11  1  0
 11 12  1  0
 11 13  2  0
 13 14  1  0
 13 15  1  0
 15 16  1  0
M  END
$$$$
