F13_53
     RDKit          3D

 16 16  0  0  0  0  0  0  0  0999 V2000
  -19.8090   11.3890   26.3199 Br  0  0  0  0  0  0  0  0  0  0  0  0
  -21.2021   12.2133   27.2505 C   0  0  0  0  0  0  0  0  0  0  0  0
  -22.4339   11.7251   27.5050 C   0  0  0  0  0  0  0  0  0  0  0  0
  -22.8918   10.8025   27.2611 H   0  0  0  0  0  0  0  0  0  0  0  0
  -23.0720   12.6895   28.2075 N   0  0  0  0  0  0  0  0  0  0  0  0
  -24.4281   12.6739   28.7193 C   0  0  0  0  0  0  0  0  0  0  0  0
  -24.9576   11.8696   28.1968 H   0  0  0  0  0  0  0  0  0  0  0  0
  -24.3708   12.4208   29.7839 H   0  0  0  0  0  0  0  0  0  0  0  0
  -25.1299   14.0055   28.5039 C   0  0  0  0  0  0  0  0  0  0  0  0
  -24.5045   14.8191   28.8821 H   0  0  0  0  0  0  0  0  0  0  0  0
  -26.1019   14.0427   29.0069 H   0  0  0  0  0  0  0  0  0  0  0  0
  -25.3260   14.2279   27.1107 O   0  0  0  0  0  0  0  0  0  0  0  0
  -24.4532   14.1650   26.6845 H   0  0  0  0  0  0  0  0  0  0  0  0
  -22.2791   13.7768   28.4128 N   0  0  0  0  0  0  0  0  0  0  0  0
  -21.1491   13.4778   27.8264 C   0  0  0  0  0  0  0  0  0  0  0  0
  -20.3125   14.1275   27.8047 H   0  0  0  0  0  0  0  0  0  0  0  0
  1  2  1  0
  2  3  2  0
  2 15  1  0
  3  4  1  0
  3  5  1  0
  5  6  1  0
  5 14  1  0
  6  7  1  0
  6  8  1  0
  6  9  1  0
  9 10  1  0
  9 11  1  0
  9 12  1  0
 12 13  1  0
 14 15  2  0
 15 16  1  0
M  END
$$$$
