F467_40
     RDKit          3D

 24 24  0  0  0  0  0  0  0  0999 V2000
  -19.5453   12.3902   26.9643 O   0  0  0  0  0  0  0  0  0  0  0  0
  -19.1291   11.9023   27.6972 H   0  0  0  0  0  0  0  0  0  0  0  0
  -20.9430   12.1330   27.0318 C   0  0  0  0  0  0  0  0  0  0  0  0
  -21.4297   12.6256   26.1846 H   0  0  0  0  0  0  0  0  0  0  0  0
  -21.0864   11.0521   26.9382 H   0  0  0  0  0  0  0  0  0  0  0  0
  -21.5254   12.6123   28.3678 C   0  0  0  0  0  0  0  0  0  0  0  0
  -21.6826   13.6973   28.3610 H   0  0  0  0  0  0  0  0  0  0  0  0
  -20.7801   12.4331   29.1530 H   0  0  0  0  0  0  0  0  0  0  0  0
  -22.7641   11.8857   28.7244 N   0  0  0  0  0  0  0  0  0  0  0  0
  -23.8427   11.9710   27.7402 C   0  0  0  0  0  0  0  0  0  0  0  0
  -23.6160   12.6951   26.9485 H   0  0  0  0  0  0  0  0  0  0  0  0
  -24.7747   12.2995   28.2129 H   0  0  0  0  0  0  0  0  0  0  0  0
  -24.0003   11.0000   27.2583 H   0  0  0  0  0  0  0  0  0  0  0  0
  -22.8434   11.2070   29.9160 C   0  0  0  0  0  0  0  0  0  0  0  0
  -22.9094    9.8725   29.7992 N   0  0  0  0  0  0  0  0  0  0  0  0
  -22.9096    9.5058   28.8410 H   0  0  0  0  0  0  0  0  0  0  0  0
  -22.9736    9.0312   30.8741 C   0  0  0  0  0  0  0  0  0  0  0  0
  -23.0194    7.9945   30.6467 H   0  0  0  0  0  0  0  0  0  0  0  0
  -22.9741    9.5600   32.1436 C   0  0  0  0  0  0  0  0  0  0  0  0
  -23.0223    8.9261   32.9927 H   0  0  0  0  0  0  0  0  0  0  0  0
  -22.9163   10.9538   32.3200 C   0  0  0  0  0  0  0  0  0  0  0  0
  -22.9265   11.3681   33.2995 H   0  0  0  0  0  0  0  0  0  0  0  0
  -22.8549   11.7732   31.2180 C   0  0  0  0  0  0  0  0  0  0  0  0
  -22.8294   12.8234   31.3378 H   0  0  0  0  0  0  0  0  0  0  0  0
  1  2  1  0
  1  3  1  0
  3  4  1  0
  3  5  1  0
  3  6  1  0
  6  7  1  0
  6  8  1  0
  6  9  1  0
  9 10  1  0
  9 14  1  0
 10 11  1  0
 10 12  1  0
 10 13  1  0
 14 15  1  0
 14 23  2  0
 15 16  1  0
 15 17  2  0
 17 18  1  0
 17 19  1  0
 19 20  1  0
 19 21  2  0
 21 22  1  0
 21 23  1  0
 23 24  1  0
M  END
$$$$
