F687_15
     RDKit          3D

 24 25  0  0  0  0  0  0  0  0999 V2000
  -15.5818   15.7690   26.3318 F   0  0  0  0  0  0  0  0  0  0  0  0
  -15.8809   17.0269   25.9725 C   0  0  0  0  0  0  0  0  0  0  0  0
  -17.1963   17.5174   26.0966 C   0  0  0  0  0  0  0  0  0  0  0  0
  -18.2518   16.7680   26.5843 N   0  0  0  0  0  0  0  0  0  0  0  0
  -19.1186   17.2146   26.8684 H   0  0  0  0  0  0  0  0  0  0  0  0
  -18.2579   15.3216   26.7489 C   0  0  0  0  0  0  0  0  0  0  0  0
  -17.4367   15.0301   27.4160 H   0  0  0  0  0  0  0  0  0  0  0  0
  -19.2009   15.0151   27.2171 H   0  0  0  0  0  0  0  0  0  0  0  0
  -18.1073   14.5349   25.4757 C   0  0  0  0  0  0  0  0  0  0  0  0
  -17.0566   14.6773   24.7043 N   0  0  0  0  0  0  0  0  0  0  0  0
  -17.2640   13.8242   23.6662 N   0  0  0  0  0  0  0  0  0  0  0  0
  -16.5927   13.7159   22.8838 H   0  0  0  0  0  0  0  0  0  0  0  0
  -18.4282   13.1535   23.7882 C   0  0  0  0  0  0  0  0  0  0  0  0
  -18.7567   12.4418   23.0753 H   0  0  0  0  0  0  0  0  0  0  0  0
  -18.9798   13.5923   24.9402 C   0  0  0  0  0  0  0  0  0  0  0  0
  -19.8998   13.2756   25.3626 H   0  0  0  0  0  0  0  0  0  0  0  0
  -17.4570   18.8309   25.6986 C   0  0  0  0  0  0  0  0  0  0  0  0
  -18.4403   19.2173   25.7684 H   0  0  0  0  0  0  0  0  0  0  0  0
  -16.4248   19.6306   25.2075 C   0  0  0  0  0  0  0  0  0  0  0  0
  -16.6295   20.6272   24.9109 H   0  0  0  0  0  0  0  0  0  0  0  0
  -15.1245   19.1321   25.1040 C   0  0  0  0  0  0  0  0  0  0  0  0
  -14.3482   19.7499   24.7306 H   0  0  0  0  0  0  0  0  0  0  0  0
  -14.8516   17.8203   25.4878 C   0  0  0  0  0  0  0  0  0  0  0  0
  -13.8713   17.4277   25.4071 H   0  0  0  0  0  0  0  0  0  0  0  0
  1  2  1  0
  2  3  1  0
  2 23  2  0
  3  4  1  0
  3 17  2  0
  4  5  1  0
  4  6  1  0
  6  7  1  0
  6  8  1  0
  6  9  1  0
  9 10  2  0
  9 15  1  0
 10 11  1  0
 11 12  1  0
 11 13  1  0
 13 14  1  0
 13 15  2  0
 15 16  1  0
 17 18  1  0
 17 19  1  0
 19 20  1  0
 19 21  2  0
 21 22  1  0
 21 23  1  0
 23 24  1  0
M  END
$$$$
