F11_59
     RDKit          3D

 16 17  0  0  0  0  0  0  0  0999 V2000
  -25.5673   13.7434   31.9374 Br  0  0  0  0  0  0  0  0  0  0  0  0
  -25.3975   14.0766   30.0794 C   0  0  0  0  0  0  0  0  0  0  0  0
  -24.3318   13.5631   29.2908 C   0  0  0  0  0  0  0  0  0  0  0  0
  -24.3224   13.8869   27.9125 C   0  0  0  0  0  0  0  0  0  0  0  0
  -25.2954   14.6612   27.3515 N   0  0  0  0  0  0  0  0  0  0  0  0
  -26.2646   15.1237   28.0876 C   0  0  0  0  0  0  0  0  0  0  0  0
  -27.0087   15.7235   27.6229 H   0  0  0  0  0  0  0  0  0  0  0  0
  -26.3501   14.8512   29.4663 C   0  0  0  0  0  0  0  0  0  0  0  0
  -27.1592   15.2511   30.0221 H   0  0  0  0  0  0  0  0  0  0  0  0
  -23.3391   13.4384   27.0798 N   0  0  0  0  0  0  0  0  0  0  0  0
  -22.3780   12.6928   27.5497 C   0  0  0  0  0  0  0  0  0  0  0  0
  -21.6260   12.3585   26.8777 H   0  0  0  0  0  0  0  0  0  0  0  0
  -22.3132   12.3241   28.9103 C   0  0  0  0  0  0  0  0  0  0  0  0
  -21.5116   11.7156   29.2425 H   0  0  0  0  0  0  0  0  0  0  0  0
  -23.2790   12.7507   29.7857 C   0  0  0  0  0  0  0  0  0  0  0  0
  -23.2323   12.4754   30.8077 H   0  0  0  0  0  0  0  0  0  0  0  0
  1  2  1  0
  2  3  1  0
  2  8  2  0
  3  4  1  0
  3 15  2  0
  4  5  1  0
  4 10  2  0
  5  6  2  0
  6  7  1  0
  6  8  1  0
  8  9  1  0
 10 11  1  0
 11 12  1  0
 11 13  2  0
 13 14  1  0
 13 15  1  0
 15 16  1  0
M  END
$$$$
