F11_80
     RDKit          3D

 16 17  0  0  0  0  0  0  0  0999 V2000
  -25.2607   17.6826   28.9231 Br  0  0  0  0  0  0  0  0  0  0  0  0
  -24.2557   17.1066   30.4232 C   0  0  0  0  0  0  0  0  0  0  0  0
  -22.9763   17.6326   30.7513 C   0  0  0  0  0  0  0  0  0  0  0  0
  -22.3307   17.1152   31.9002 C   0  0  0  0  0  0  0  0  0  0  0  0
  -22.9065   16.1485   32.6716 N   0  0  0  0  0  0  0  0  0  0  0  0
  -24.0789   15.6774   32.3575 C   0  0  0  0  0  0  0  0  0  0  0  0
  -24.5027   14.9254   32.9774 H   0  0  0  0  0  0  0  0  0  0  0  0
  -24.7898   16.1347   31.2315 C   0  0  0  0  0  0  0  0  0  0  0  0
  -25.7413   15.7193   31.0184 H   0  0  0  0  0  0  0  0  0  0  0  0
  -21.1015   17.5604   32.2907 N   0  0  0  0  0  0  0  0  0  0  0  0
  -20.4939   18.4841   31.5995 C   0  0  0  0  0  0  0  0  0  0  0  0
  -19.5377   18.8109   31.9274 H   0  0  0  0  0  0  0  0  0  0  0  0
  -21.0676   19.0526   30.4422 C   0  0  0  0  0  0  0  0  0  0  0  0
  -20.5332   19.8011   29.9157 H   0  0  0  0  0  0  0  0  0  0  0  0
  -22.3014   18.6374   30.0106 C   0  0  0  0  0  0  0  0  0  0  0  0
  -22.7340   19.0625   29.1419 H   0  0  0  0  0  0  0  0  0  0  0  0
  1  2  1  0
  2  3  1  0
  2  8  2  0
  3  4  1  0
  3 15  2  0
  4  5  1  0
  4 10  2  0
  5  6  2  0
  6  7  1  0
  6  8  1  0
  8  9  1  0
 10 11  1  0
 11 12  1  0
 11 13  2  0
 13 14  1  0
 13 15  1  0
 15 16  1  0
M  END
$$$$
