F275_12
     RDKit          3D

 20 20  0  0  0  0  0  0  0  0999 V2000
  -24.1818   12.6322   27.0639 S   0  0  0  0  0  0  0  0  0  0  0  0
  -24.1143   11.2374   27.4346 O   0  0  0  0  0  0  0  0  0  0  0  0
  -25.0208   13.1003   25.9820 O   0  0  0  0  0  0  0  0  0  0  0  0
  -22.6077   13.1306   26.7216 N   0  0  0  0  0  0  0  0  0  0  0  0
  -22.0452   13.2452   27.5678 H   0  0  0  0  0  0  0  0  0  0  0  0
  -22.1641   12.5513   26.0041 H   0  0  0  0  0  0  0  0  0  0  0  0
  -24.5458   13.5791   28.5027 C   0  0  0  0  0  0  0  0  0  0  0  0
  -24.3395   13.0388   29.7756 C   0  0  0  0  0  0  0  0  0  0  0  0
  -23.9844   12.0475   29.8909 H   0  0  0  0  0  0  0  0  0  0  0  0
  -24.6019   13.8221   30.8893 C   0  0  0  0  0  0  0  0  0  0  0  0
  -24.4056   13.2972   32.1076 F   0  0  0  0  0  0  0  0  0  0  0  0
  -25.0537   15.1295   30.7904 C   0  0  0  0  0  0  0  0  0  0  0  0
  -25.2388   15.6944   31.6676 H   0  0  0  0  0  0  0  0  0  0  0  0
  -25.2514   15.6796   29.5260 C   0  0  0  0  0  0  0  0  0  0  0  0
  -25.6934   17.1064   29.3813 C   0  0  0  0  0  0  0  0  0  0  0  0
  -26.3128   17.4130   30.2308 H   0  0  0  0  0  0  0  0  0  0  0  0
  -26.2957   17.2384   28.4766 H   0  0  0  0  0  0  0  0  0  0  0  0
  -24.8212   17.7642   29.3239 H   0  0  0  0  0  0  0  0  0  0  0  0
  -24.9901   14.9040   28.3927 C   0  0  0  0  0  0  0  0  0  0  0  0
  -25.1241   15.3225   27.4258 H   0  0  0  0  0  0  0  0  0  0  0  0
  1  2  2  0
  1  3  2  0
  1  4  1  0
  1  7  1  0
  4  5  1  0
  4  6  1  0
  7  8  1  0
  7 19  2  0
  8  9  1  0
  8 10  2  0
 10 11  1  0
 10 12  1  0
 12 13  1  0
 12 14  2  0
 14 15  1  0
 14 19  1  0
 15 16  1  0
 15 17  1  0
 15 18  1  0
 19 20  1  0
M  END
$$$$
