F488_53
     RDKit          3D

 39 40  0  0  0  0  0  0  0  0999 V2000
  -16.1997   15.2481   25.0701 O   0  0  0  0  0  0  0  0  0  0  0  0
  -17.1469   15.4924   25.8109 C   0  0  0  0  0  0  0  0  0  0  0  0
  -18.3744   14.5828   25.8267 C   0  0  0  0  0  0  0  0  0  0  0  0
  -19.2411   15.2049   25.5735 H   0  0  0  0  0  0  0  0  0  0  0  0
  -18.3038   13.8395   25.0232 H   0  0  0  0  0  0  0  0  0  0  0  0
  -18.6467   13.9596   27.0709 O   0  0  0  0  0  0  0  0  0  0  0  0
  -19.7677   13.1781   27.1886 C   0  0  0  0  0  0  0  0  0  0  0  0
  -19.8921   11.8615   26.7468 C   0  0  0  0  0  0  0  0  0  0  0  0
  -19.0900   11.3682   26.2633 H   0  0  0  0  0  0  0  0  0  0  0  0
  -21.0931   11.1869   26.9423 C   0  0  0  0  0  0  0  0  0  0  0  0
  -21.1900   10.1834   26.6131 H   0  0  0  0  0  0  0  0  0  0  0  0
  -22.1683   11.8218   27.5647 C   0  0  0  0  0  0  0  0  0  0  0  0
  -23.4516   11.0778   27.8025 C   0  0  0  0  0  0  0  0  0  0  0  0
  -23.4185   10.5807   28.7770 H   0  0  0  0  0  0  0  0  0  0  0  0
  -24.3084   11.7581   27.7800 H   0  0  0  0  0  0  0  0  0  0  0  0
  -23.6155   10.3236   27.0262 H   0  0  0  0  0  0  0  0  0  0  0  0
  -22.0339   13.1435   27.9927 C   0  0  0  0  0  0  0  0  0  0  0  0
  -22.8471   13.6344   28.4611 H   0  0  0  0  0  0  0  0  0  0  0  0
  -20.8358   13.8246   27.8018 C   0  0  0  0  0  0  0  0  0  0  0  0
  -20.7340   14.8307   28.1176 H   0  0  0  0  0  0  0  0  0  0  0  0
  -17.0964   16.5965   26.6005 N   0  0  0  0  0  0  0  0  0  0  0  0
  -15.8582   17.3839   26.6897 C   0  0  0  0  0  0  0  0  0  0  0  0
  -15.4577   17.2265   27.6994 H   0  0  0  0  0  0  0  0  0  0  0  0
  -15.0997   17.0280   25.9862 H   0  0  0  0  0  0  0  0  0  0  0  0
  -16.1072   18.8756   26.4522 C   0  0  0  0  0  0  0  0  0  0  0  0
  -16.4637   19.0682   25.4349 H   0  0  0  0  0  0  0  0  0  0  0  0
  -15.2019   19.4574   26.6484 H   0  0  0  0  0  0  0  0  0  0  0  0
  -17.1821   19.3712   27.4073 N   0  0  0  0  0  0  0  0  0  0  0  0
  -16.8423   19.2117   28.3665 H   0  0  0  0  0  0  0  0  0  0  0  0
  -17.4117   20.8484   27.2716 C   0  0  0  0  0  0  0  0  0  0  0  0
  -18.1504   21.1462   28.0205 H   0  0  0  0  0  0  0  0  0  0  0  0
  -16.4624   21.3571   27.4608 H   0  0  0  0  0  0  0  0  0  0  0  0
  -17.7727   21.0556   26.2610 H   0  0  0  0  0  0  0  0  0  0  0  0
  -18.4675   18.5800   27.2376 C   0  0  0  0  0  0  0  0  0  0  0  0
  -18.8396   18.7827   26.2276 H   0  0  0  0  0  0  0  0  0  0  0  0
  -19.1829   18.9507   27.9780 H   0  0  0  0  0  0  0  0  0  0  0  0
  -18.2010   17.0807   27.4398 C   0  0  0  0  0  0  0  0  0  0  0  0
  -19.1277   16.5408   27.2392 H   0  0  0  0  0  0  0  0  0  0  0  0
  -17.9203   16.8846   28.4820 H   0  0  0  0  0  0  0  0  0  0  0  0
  1  2  2  0
  2  3  1  0
  2 21  1  0
  3  4  1  0
  3  5  1  0
  3  6  1  0
  6  7  1  0
  7  8  1  0
  7 19  2  0
  8  9  1  0
  8 10  2  0
 10 11  1  0
 10 12  1  0
 12 13  1  0
 12 17  2  0
 13 14  1  0
 13 15  1  0
 13 16  1  0
 17 18  1  0
 17 19  1  0
 19 20  1  0
 21 22  1  0
 21 37  1  0
 22 23  1  0
 22 24  1  0
 22 25  1  0
 25 26  1  0
 25 27  1  0
 25 28  1  0
 28 29  1  0
 28 30  1  0
 28 34  1  0
 30 31  1  0
 30 32  1  0
 30 33  1  0
 34 35  1  0
 34 36  1  0
 34 37  1  0
 37 38  1  0
 37 39  1  0
M  END
$$$$
