F535_96
     RDKit          3D

 23 24  0  0  0  0  0  0  0  0999 V2000
  -18.6930   13.8866   25.6665 N   0  0  0  0  0  0  0  0  0  0  0  0
  -19.5442   14.3794   25.9771 H   0  0  0  0  0  0  0  0  0  0  0  0
  -17.9377   14.5696   25.8211 H   0  0  0  0  0  0  0  0  0  0  0  0
  -18.4667   12.7283   26.5911 C   0  0  0  0  0  0  0  0  0  0  0  0
  -17.6367   12.1493   26.1758 H   0  0  0  0  0  0  0  0  0  0  0  0
  -18.1802   13.1492   27.5609 H   0  0  0  0  0  0  0  0  0  0  0  0
  -19.6878   11.9000   26.7125 C   0  0  0  0  0  0  0  0  0  0  0  0
  -20.8201   12.2660   27.3277 N   0  0  0  0  0  0  0  0  0  0  0  0
  -21.6750   11.2237   27.2130 C   0  0  0  0  0  0  0  0  0  0  0  0
  -21.0793   10.2622   26.5454 N   0  0  0  0  0  0  0  0  0  0  0  0
  -19.8326   10.6982   26.2323 N   0  0  0  0  0  0  0  0  0  0  0  0
  -22.9761   11.3346   27.7884 C   0  0  0  0  0  0  0  0  0  0  0  0
  -23.6461   10.5181   27.7010 H   0  0  0  0  0  0  0  0  0  0  0  0
  -23.3361   12.4801   28.4385 C   0  0  0  0  0  0  0  0  0  0  0  0
  -24.2997   12.5774   28.8721 H   0  0  0  0  0  0  0  0  0  0  0  0
  -22.4064   13.5624   28.5369 C   0  0  0  0  0  0  0  0  0  0  0  0
  -22.7036   14.4468   29.0443 H   0  0  0  0  0  0  0  0  0  0  0  0
  -21.1581   13.4603   27.9881 C   0  0  0  0  0  0  0  0  0  0  0  0
  -20.4119   14.2105   28.0146 H   0  0  0  0  0  0  0  0  0  0  0  0
  -18.7932   13.5416   24.2291 C   0  0  0  0  0  0  0  0  0  0  0  0
  -19.6371   12.8616   24.0962 H   0  0  0  0  0  0  0  0  0  0  0  0
  -17.8544   13.0754   23.9216 H   0  0  0  0  0  0  0  0  0  0  0  0
  -18.9578   14.4709   23.6787 H   0  0  0  0  0  0  0  0  0  0  0  0
  1  2  1  0
  1  3  1  0
  1  4  1  0
  1 20  1  0
  4  5  1  0
  4  6  1  0
  4  7  1  0
  7  8  1  0
  7 11  2  0
  8  9  1  0
  8 18  1  0
  9 10  2  0
  9 12  1  0
 10 11  1  0
 12 13  1  0
 12 14  2  0
 14 15  1  0
 14 16  1  0
 16 17  1  0
 16 18  2  0
 18 19  1  0
 20 21  1  0
 20 22  1  0
 20 23  1  0
M  END
$$$$
