F618_75
     RDKit          3D

 26 26  0  0  0  0  0  0  0  0999 V2000
  -23.1425   13.0049   25.8681 F   0  0  0  0  0  0  0  0  0  0  0  0
  -22.1354   12.7902   26.7290 C   0  0  0  0  0  0  0  0  0  0  0  0
  -22.3377   12.7427   28.1205 C   0  0  0  0  0  0  0  0  0  0  0  0
  -23.6117   12.8881   28.6924 N   0  0  0  0  0  0  0  0  0  0  0  0
  -23.6940   13.4946   30.0422 C   0  0  0  0  0  0  0  0  0  0  0  0
  -23.6826   12.4128   31.1382 C   0  0  0  0  0  0  0  0  0  0  0  0
  -23.6767   12.8747   32.1314 H   0  0  0  0  0  0  0  0  0  0  0  0
  -22.7957   11.7757   31.0659 H   0  0  0  0  0  0  0  0  0  0  0  0
  -24.8285   11.5676   31.0567 O   0  0  0  0  0  0  0  0  0  0  0  0
  -24.7222   10.9321   31.7873 H   0  0  0  0  0  0  0  0  0  0  0  0
  -24.9039   14.4249   30.1923 C   0  0  0  0  0  0  0  0  0  0  0  0
  -24.8274   14.9928   31.1265 H   0  0  0  0  0  0  0  0  0  0  0  0
  -25.8523   13.8810   30.2287 H   0  0  0  0  0  0  0  0  0  0  0  0
  -24.9511   15.1435   29.3681 H   0  0  0  0  0  0  0  0  0  0  0  0
  -24.8046   12.4632   27.9743 C   0  0  0  0  0  0  0  0  0  0  0  0
  -25.0558   13.1776   27.1834 H   0  0  0  0  0  0  0  0  0  0  0  0
  -25.6769   12.3765   28.6287 H   0  0  0  0  0  0  0  0  0  0  0  0
  -24.6722   11.4650   27.5400 H   0  0  0  0  0  0  0  0  0  0  0  0
  -21.3159   12.5421   28.9669 N   0  0  0  0  0  0  0  0  0  0  0  0
  -20.0834   12.4015   28.4633 C   0  0  0  0  0  0  0  0  0  0  0  0
  -19.2876   12.2490   29.1463 H   0  0  0  0  0  0  0  0  0  0  0  0
  -19.8225   12.4491   27.0925 C   0  0  0  0  0  0  0  0  0  0  0  0
  -18.8315   12.3334   26.7384 H   0  0  0  0  0  0  0  0  0  0  0  0
  -20.8688   12.6469   26.1952 C   0  0  0  0  0  0  0  0  0  0  0  0
  -20.7098   12.6858   25.1488 H   0  0  0  0  0  0  0  0  0  0  0  0
  -22.8252   14.1466   30.2048 H   0  0  0  0  0  0  0  0  0  0  0  0
  1  2  1  0
  2  3  1  0
  2 24  2  0
  3  4  1  0
  3 19  2  0
  4  5  1  0
  4 15  1  0
  5  6  1  0
  5 11  1  0
  5 26  1  0
  6  7  1  0
  6  8  1  0
  6  9  1  0
  9 10  1  0
 11 12  1  0
 11 13  1  0
 11 14  1  0
 15 16  1  0
 15 17  1  0
 15 18  1  0
 19 20  1  0
 20 21  1  0
 20 22  2  0
 22 23  1  0
 22 24  1  0
 24 25  1  0
M  END
$$$$
