F501_70
     RDKit          3D

 23 24  0  0  0  0  0  0  0  0999 V2000
  -23.0268   10.3559   31.2147 C   0  0  0  0  0  0  0  0  0  0  0  0
  -23.7110   10.8006   31.9421 H   0  0  0  0  0  0  0  0  0  0  0  0
  -21.9937   10.5982   31.4747 H   0  0  0  0  0  0  0  0  0  0  0  0
  -23.1707    9.2731   31.1968 H   0  0  0  0  0  0  0  0  0  0  0  0
  -23.2985   10.8824   29.9050 N   0  0  0  0  0  0  0  0  0  0  0  0
  -22.8117   10.2588   28.8221 N   0  0  0  0  0  0  0  0  0  0  0  0
  -23.1850   10.9402   27.7649 N   0  0  0  0  0  0  0  0  0  0  0  0
  -23.9115   11.9879   28.2055 C   0  0  0  0  0  0  0  0  0  0  0  0
  -23.9992   11.9590   29.5449 C   0  0  0  0  0  0  0  0  0  0  0  0
  -24.7319   12.9221   30.4079 C   0  0  0  0  0  0  0  0  0  0  0  0
  -25.6504   12.4337   30.7579 H   0  0  0  0  0  0  0  0  0  0  0  0
  -24.1437   13.1664   31.2978 H   0  0  0  0  0  0  0  0  0  0  0  0
  -25.1216   14.1798   29.5933 C   0  0  0  0  0  0  0  0  0  0  0  0
  -24.0136   15.2358   29.6585 C   0  0  0  0  0  0  0  0  0  0  0  0
  -24.3628   16.4145   29.8909 O   0  0  0  0  0  0  0  0  0  0  0  0
  -22.8408   14.8663   29.4352 O   0  0  0  0  0  0  0  0  0  0  0  0
  -25.5718   13.8287   28.1513 C   0  0  0  0  0  0  0  0  0  0  0  0
  -26.4859   13.2228   28.2199 H   0  0  0  0  0  0  0  0  0  0  0  0
  -25.8431   14.7329   27.5937 H   0  0  0  0  0  0  0  0  0  0  0  0
  -24.5146   13.0345   27.3518 C   0  0  0  0  0  0  0  0  0  0  0  0
  -23.7257   13.7066   26.9957 H   0  0  0  0  0  0  0  0  0  0  0  0
  -24.9835   12.5856   26.4687 H   0  0  0  0  0  0  0  0  0  0  0  0
  -25.9754   14.6500   30.1005 H   0  0  0  0  0  0  0  0  0  0  0  0
  1  2  1  0
  1  3  1  0
  1  4  1  0
  1  5  1  0
  5  6  1  0
  5  9  1  0
  6  7  2  0
  7  8  1  0
  8  9  2  0
  8 20  1  0
  9 10  1  0
 10 11  1  0
 10 12  1  0
 10 13  1  0
 13 14  1  0
 13 17  1  0
 13 23  1  0
 14 15  1  0
 14 16  2  0
 17 18  1  0
 17 19  1  0
 17 20  1  0
 20 21  1  0
 20 22  1  0
M  END
$$$$
