F14_28
     RDKit          3D

 19 19  0  0  0  0  0  0  0  0999 V2000
  -22.6660   11.5597   27.7771 Br  0  0  0  0  0  0  0  0  0  0  0  0
  -23.9373   12.9156   27.6068 C   0  0  0  0  0  0  0  0  0  0  0  0
  -24.0387   14.0556   28.3232 C   0  0  0  0  0  0  0  0  0  0  0  0
  -23.4602   14.4401   29.1230 H   0  0  0  0  0  0  0  0  0  0  0  0
  -25.1156   14.7058   27.8297 N   0  0  0  0  0  0  0  0  0  0  0  0
  -25.6552   15.9862   28.2422 C   0  0  0  0  0  0  0  0  0  0  0  0
  -24.9013   16.7463   28.0092 H   0  0  0  0  0  0  0  0  0  0  0  0
  -26.5410   16.1736   27.6262 H   0  0  0  0  0  0  0  0  0  0  0  0
  -26.0158   15.9992   29.7198 C   0  0  0  0  0  0  0  0  0  0  0  0
  -26.6447   15.1410   29.9844 H   0  0  0  0  0  0  0  0  0  0  0  0
  -26.5599   16.9219   29.9496 H   0  0  0  0  0  0  0  0  0  0  0  0
  -24.8140   15.9792   30.4952 O   0  0  0  0  0  0  0  0  0  0  0  0
  -25.0871   16.0075   31.8900 C   0  0  0  0  0  0  0  0  0  0  0  0
  -24.1353   16.0045   32.4274 H   0  0  0  0  0  0  0  0  0  0  0  0
  -25.6583   15.1227   32.1854 H   0  0  0  0  0  0  0  0  0  0  0  0
  -25.6360   16.9162   32.1544 H   0  0  0  0  0  0  0  0  0  0  0  0
  -25.7101   14.0099   26.8205 N   0  0  0  0  0  0  0  0  0  0  0  0
  -24.9854   12.9279   26.6927 C   0  0  0  0  0  0  0  0  0  0  0  0
  -25.1884   12.1695   25.9811 H   0  0  0  0  0  0  0  0  0  0  0  0
  1  2  1  0
  2  3  2  0
  2 18  1  0
  3  4  1  0
  3  5  1  0
  5  6  1  0
  5 17  1  0
  6  7  1  0
  6  8  1  0
  6  9  1  0
  9 10  1  0
  9 11  1  0
  9 12  1  0
 12 13  1  0
 13 14  1  0
 13 15  1  0
 13 16  1  0
 17 18  2  0
 18 19  1  0
M  END
$$$$
