F603_79
     RDKit          3D

 24 25  0  0  0  0  0  0  0  0999 V2000
  -18.9028   13.3015   25.7252 S   0  0  0  0  0  0  0  0  0  0  0  0
  -20.0217   13.3272   24.8040 O   0  0  0  0  0  0  0  0  0  0  0  0
  -17.5825   12.8864   25.2803 O   0  0  0  0  0  0  0  0  0  0  0  0
  -19.3379   12.3001   27.1379 C   0  0  0  0  0  0  0  0  0  0  0  0
  -19.2515   11.2503   26.8442 H   0  0  0  0  0  0  0  0  0  0  0  0
  -18.6242   12.5211   27.9362 H   0  0  0  0  0  0  0  0  0  0  0  0
  -20.7318   12.6057   27.5612 C   0  0  0  0  0  0  0  0  0  0  0  0
  -21.8121   11.8738   27.1491 N   0  0  0  0  0  0  0  0  0  0  0  0
  -21.7994   11.0787   26.4946 H   0  0  0  0  0  0  0  0  0  0  0  0
  -22.9172   12.3786   27.7508 C   0  0  0  0  0  0  0  0  0  0  0  0
  -22.4508   13.4209   28.5248 C   0  0  0  0  0  0  0  0  0  0  0  0
  -21.0839   13.5361   28.3851 N   0  0  0  0  0  0  0  0  0  0  0  0
  -23.3621   14.1620   29.2887 C   0  0  0  0  0  0  0  0  0  0  0  0
  -23.0115   14.9642   29.8837 H   0  0  0  0  0  0  0  0  0  0  0  0
  -24.7102   13.8295   29.2466 C   0  0  0  0  0  0  0  0  0  0  0  0
  -25.4082   14.3837   29.8194 H   0  0  0  0  0  0  0  0  0  0  0  0
  -25.1633   12.7556   28.4454 C   0  0  0  0  0  0  0  0  0  0  0  0
  -26.1973   12.5181   28.4284 H   0  0  0  0  0  0  0  0  0  0  0  0
  -24.2696   12.0169   27.6867 C   0  0  0  0  0  0  0  0  0  0  0  0
  -24.5954   11.2107   27.0813 H   0  0  0  0  0  0  0  0  0  0  0  0
  -18.7481   14.9245   26.4265 C   0  0  0  0  0  0  0  0  0  0  0  0
  -19.7074   15.2139   26.8590 H   0  0  0  0  0  0  0  0  0  0  0  0
  -18.4732   15.6164   25.6277 H   0  0  0  0  0  0  0  0  0  0  0  0
  -17.9678   14.9070   27.1904 H   0  0  0  0  0  0  0  0  0  0  0  0
  1  2  2  0
  1  3  2  0
  1  4  1  0
  1 21  1  0
  4  5  1  0
  4  6  1  0
  4  7  1  0
  7  8  1  0
  7 12  2  0
  8  9  1  0
  8 10  1  0
 10 11  1  0
 10 19  2  0
 11 12  1  0
 11 13  2  0
 13 14  1  0
 13 15  1  0
 15 16  1  0
 15 17  2  0
 17 18  1  0
 17 19  1  0
 19 20  1  0
 21 22  1  0
 21 23  1  0
 21 24  1  0
M  END
$$$$
