F309_23
     RDKit          3D

 14 14  0  0  0  0  0  0  0  0999 V2000
  -25.4745   13.1001   25.5625 O   0  0  0  0  0  0  0  0  0  0  0  0
  -24.7140   12.7654   26.5127 C   0  0  0  0  0  0  0  0  0  0  0  0
  -23.9046   11.8035   26.3584 O   0  0  0  0  0  0  0  0  0  0  0  0
  -24.7681   13.4854   27.7786 C   0  0  0  0  0  0  0  0  0  0  0  0
  -23.9728   13.2846   28.8946 C   0  0  0  0  0  0  0  0  0  0  0  0
  -22.8820   12.2589   28.9972 C   0  0  0  0  0  0  0  0  0  0  0  0
  -22.3991   12.2913   29.9793 H   0  0  0  0  0  0  0  0  0  0  0  0
  -22.1080   12.4409   28.2449 H   0  0  0  0  0  0  0  0  0  0  0  0
  -23.2871   11.2500   28.8651 H   0  0  0  0  0  0  0  0  0  0  0  0
  -24.2825   14.1514   29.9551 C   0  0  0  0  0  0  0  0  0  0  0  0
  -23.7772   14.1436   30.8858 H   0  0  0  0  0  0  0  0  0  0  0  0
  -25.3032   15.0093   29.6655 C   0  0  0  0  0  0  0  0  0  0  0  0
  -25.7191   15.7528   30.2948 H   0  0  0  0  0  0  0  0  0  0  0  0
  -25.9087   14.7679   28.0726 S   0  0  0  0  0  0  0  0  0  0  0  0
  1  2  1  0
  2  3  2  0
  2  4  1  0
  4  5  2  0
  4 14  1  0
  5  6  1  0
  5 10  1  0
  6  7  1  0
  6  8  1  0
  6  9  1  0
 10 11  1  0
 10 12  2  0
 12 13  1  0
 12 14  1  0
M  END
$$$$
