F96_4
     RDKit          3D

 19 19  0  0  0  0  0  0  0  0999 V2000
  -16.0289   15.7767   27.6833 O   0  0  0  0  0  0  0  0  0  0  0  0
  -16.0760   16.3722   26.6165 C   0  0  0  0  0  0  0  0  0  0  0  0
  -17.1509   16.3490   25.8414 N   0  0  0  0  0  0  0  0  0  0  0  0
  -17.1527   16.8407   24.9643 H   0  0  0  0  0  0  0  0  0  0  0  0
  -18.3482   15.6231   26.2088 C   0  0  0  0  0  0  0  0  0  0  0  0
  -18.3189   15.4268   27.2861 H   0  0  0  0  0  0  0  0  0  0  0  0
  -19.2200   16.2541   26.0047 H   0  0  0  0  0  0  0  0  0  0  0  0
  -18.4026   14.3570   25.4319 C   0  0  0  0  0  0  0  0  0  0  0  0
  -18.1908   14.2022   24.1036 C   0  0  0  0  0  0  0  0  0  0  0  0
  -17.9514   14.8987   23.3417 H   0  0  0  0  0  0  0  0  0  0  0  0
  -18.3443   12.8832   23.8591 N   0  0  0  0  0  0  0  0  0  0  0  0
  -18.2444   12.4303   22.9315 H   0  0  0  0  0  0  0  0  0  0  0  0
  -18.6551   12.1912   24.9862 N   0  0  0  0  0  0  0  0  0  0  0  0
  -18.6862   13.0898   25.9315 C   0  0  0  0  0  0  0  0  0  0  0  0
  -18.9064   12.8600   26.9439 H   0  0  0  0  0  0  0  0  0  0  0  0
  -14.9071   17.1536   26.0840 C   0  0  0  0  0  0  0  0  0  0  0  0
  -15.2365   17.9441   25.4039 H   0  0  0  0  0  0  0  0  0  0  0  0
  -14.2379   16.4758   25.5487 H   0  0  0  0  0  0  0  0  0  0  0  0
  -14.3699   17.6154   26.9170 H   0  0  0  0  0  0  0  0  0  0  0  0
  1  2  2  0
  2  3  1  0
  2 16  1  0
  3  4  1  0
  3  5  1  0
  5  6  1  0
  5  7  1  0
  5  8  1  0
  8  9  2  0
  8 14  1  0
  9 10  1  0
  9 11  1  0
 11 12  1  0
 11 13  1  0
 13 14  2  0
 14 15  1  0
 16 17  1  0
 16 18  1  0
 16 19  1  0
M  END
$$$$
