F11_54
     RDKit          3D

 16 17  0  0  0  0  0  0  0  0999 V2000
  -24.3085   11.4642   31.5762 Br  0  0  0  0  0  0  0  0  0  0  0  0
  -24.0619   12.1143   29.8131 C   0  0  0  0  0  0  0  0  0  0  0  0
  -24.8435   13.1618   29.2534 C   0  0  0  0  0  0  0  0  0  0  0  0
  -24.5567   13.5537   27.9235 C   0  0  0  0  0  0  0  0  0  0  0  0
  -23.5685   12.9560   27.1974 N   0  0  0  0  0  0  0  0  0  0  0  0
  -22.8616   11.9981   27.7247 C   0  0  0  0  0  0  0  0  0  0  0  0
  -22.0982   11.5517   27.1354 H   0  0  0  0  0  0  0  0  0  0  0  0
  -23.0809   11.5459   29.0399 C   0  0  0  0  0  0  0  0  0  0  0  0
  -22.4783   10.7629   29.4235 H   0  0  0  0  0  0  0  0  0  0  0  0
  -25.2554   14.5494   27.3054 N   0  0  0  0  0  0  0  0  0  0  0  0
  -26.2132   15.1642   27.9417 C   0  0  0  0  0  0  0  0  0  0  0  0
  -26.7401   15.9352   27.4350 H   0  0  0  0  0  0  0  0  0  0  0  0
  -26.5625   14.8350   29.2687 C   0  0  0  0  0  0  0  0  0  0  0  0
  -27.3486   15.3651   29.7422 H   0  0  0  0  0  0  0  0  0  0  0  0
  -25.8886   13.8411   29.9314 C   0  0  0  0  0  0  0  0  0  0  0  0
  -26.1492   13.5920   30.9276 H   0  0  0  0  0  0  0  0  0  0  0  0
  1  2  1  0
  2  3  1  0
  2  8  2  0
  3  4  1  0
  3 15  2  0
  4  5  1  0
  4 10  2  0
  5  6  2  0
  6  7  1  0
  6  8  1  0
  8  9  1  0
 10 11  1  0
 11 12  1  0
 11 13  2  0
 13 14  1  0
 13 15  1  0
 15 16  1  0
M  END
$$$$
