F558_96
     RDKit          3D

 32 33  0  0  0  0  0  0  0  0999 V2000
  -19.2435   11.4881   25.1014 O   0  0  0  0  0  0  0  0  0  0  0  0
  -19.3493   12.6901   25.2957 C   0  0  0  0  0  0  0  0  0  0  0  0
  -18.6953   13.6597   24.6035 O   0  0  0  0  0  0  0  0  0  0  0  0
  -17.8475   13.1717   23.5612 C   0  0  0  0  0  0  0  0  0  0  0  0
  -18.4302   12.6106   22.8247 H   0  0  0  0  0  0  0  0  0  0  0  0
  -17.0488   12.5502   23.9796 H   0  0  0  0  0  0  0  0  0  0  0  0
  -17.3933   14.0326   23.0638 H   0  0  0  0  0  0  0  0  0  0  0  0
  -20.1181   13.2684   26.2586 N   0  0  0  0  0  0  0  0  0  0  0  0
  -20.0151   14.2862   26.3077 H   0  0  0  0  0  0  0  0  0  0  0  0
  -21.0023   12.6659   27.1797 C   0  0  0  0  0  0  0  0  0  0  0  0
  -21.3344   11.3095   27.1459 C   0  0  0  0  0  0  0  0  0  0  0  0
  -20.9298   10.6724   26.4051 H   0  0  0  0  0  0  0  0  0  0  0  0
  -22.2144   10.7977   28.0935 C   0  0  0  0  0  0  0  0  0  0  0  0
  -22.4671    9.7683   28.0661 H   0  0  0  0  0  0  0  0  0  0  0  0
  -22.7687   11.6262   29.0712 C   0  0  0  0  0  0  0  0  0  0  0  0
  -23.7415   11.0668   30.0850 C   0  0  0  0  0  0  0  0  0  0  0  0
  -23.1887   10.4905   30.8387 H   0  0  0  0  0  0  0  0  0  0  0  0
  -24.4000   10.3312   29.6042 H   0  0  0  0  0  0  0  0  0  0  0  0
  -24.5779   12.1243   30.7597 C   0  0  0  0  0  0  0  0  0  0  0  0
  -25.7073   12.6530   30.1459 C   0  0  0  0  0  0  0  0  0  0  0  0
  -26.0146   12.3087   29.1935 H   0  0  0  0  0  0  0  0  0  0  0  0
  -26.4428   13.6447   30.7869 C   0  0  0  0  0  0  0  0  0  0  0  0
  -27.3057   14.0543   30.3245 H   0  0  0  0  0  0  0  0  0  0  0  0
  -26.0980   14.1120   31.9847 N   0  0  0  0  0  0  0  0  0  0  0  0
  -25.0181   13.6225   32.5911 C   0  0  0  0  0  0  0  0  0  0  0  0
  -24.7620   14.0140   33.5437 H   0  0  0  0  0  0  0  0  0  0  0  0
  -24.2362   12.6307   32.0079 C   0  0  0  0  0  0  0  0  0  0  0  0
  -23.3800   12.2693   32.5169 H   0  0  0  0  0  0  0  0  0  0  0  0
  -22.4383   12.9836   29.0865 C   0  0  0  0  0  0  0  0  0  0  0  0
  -22.8553   13.6244   29.8202 H   0  0  0  0  0  0  0  0  0  0  0  0
  -21.5593   13.5058   28.1437 C   0  0  0  0  0  0  0  0  0  0  0  0
  -21.3089   14.5348   28.1629 H   0  0  0  0  0  0  0  0  0  0  0  0
  1  2  2  0
  2  3  1  0
  2  8  1  0
  3  4  1  0
  4  5  1  0
  4  6  1  0
  4  7  1  0
  8  9  1  0
  8 10  1  0
 10 11  1  0
 10 31  2  0
 11 12  1  0
 11 13  2  0
 13 14  1  0
 13 15  1  0
 15 16  1  0
 15 29  2  0
 16 17  1  0
 16 18  1  0
 16 19  1  0
 19 20  1  0
 19 27  2  0
 20 21  1  0
 20 22  2  0
 22 23  1  0
 22 24  1  0
 24 25  2  0
 25 26  1  0
 25 27  1  0
 27 28  1  0
 29 30  1  0
 29 31  1  0
 31 32  1  0
M  END
$$$$
