F229_26
     RDKit          3D

 27 28  0  0  0  0  0  0  0  0999 V2000
  -19.3783   17.6374   27.9547 F   0  0  0  0  0  0  0  0  0  0  0  0
  -18.4121   18.4268   27.4588 C   0  0  0  0  0  0  0  0  0  0  0  0
  -17.6149   18.0022   26.3769 C   0  0  0  0  0  0  0  0  0  0  0  0
  -17.7600   16.7722   25.7480 N   0  0  0  0  0  0  0  0  0  0  0  0
  -17.1915   16.5715   24.9337 H   0  0  0  0  0  0  0  0  0  0  0  0
  -18.6742   15.7297   26.1809 C   0  0  0  0  0  0  0  0  0  0  0  0
  -18.4996   15.5111   27.2416 H   0  0  0  0  0  0  0  0  0  0  0  0
  -19.7077   16.0846   26.0894 H   0  0  0  0  0  0  0  0  0  0  0  0
  -18.5516   14.4509   25.4099 C   0  0  0  0  0  0  0  0  0  0  0  0
  -18.7084   13.1574   25.9036 C   0  0  0  0  0  0  0  0  0  0  0  0
  -19.0217   12.7284   27.2878 C   0  0  0  0  0  0  0  0  0  0  0  0
  -19.9166   13.2412   27.6560 H   0  0  0  0  0  0  0  0  0  0  0  0
  -18.1887   12.9663   27.9577 H   0  0  0  0  0  0  0  0  0  0  0  0
  -19.2058   11.6505   27.3466 H   0  0  0  0  0  0  0  0  0  0  0  0
  -18.5432   12.2748   24.9590 N   0  0  0  0  0  0  0  0  0  0  0  0
  -18.2815   12.9981   23.8429 N   0  0  0  0  0  0  0  0  0  0  0  0
  -18.1047   12.5608   22.9191 H   0  0  0  0  0  0  0  0  0  0  0  0
  -18.2840   14.3239   24.0894 C   0  0  0  0  0  0  0  0  0  0  0  0
  -18.1031   15.0428   23.3341 H   0  0  0  0  0  0  0  0  0  0  0  0
  -16.6306   18.8669   25.8948 C   0  0  0  0  0  0  0  0  0  0  0  0
  -16.0301   18.5749   25.0737 H   0  0  0  0  0  0  0  0  0  0  0  0
  -16.4403   20.1116   26.4928 C   0  0  0  0  0  0  0  0  0  0  0  0
  -15.6888   20.7632   26.1245 H   0  0  0  0  0  0  0  0  0  0  0  0
  -17.2307   20.5131   27.5722 C   0  0  0  0  0  0  0  0  0  0  0  0
  -17.0767   21.4625   28.0186 H   0  0  0  0  0  0  0  0  0  0  0  0
  -18.2245   19.6650   28.0566 C   0  0  0  0  0  0  0  0  0  0  0  0
  -18.8357   19.9603   28.8711 H   0  0  0  0  0  0  0  0  0  0  0  0
  1  2  1  0
  2  3  1  0
  2 26  2  0
  3  4  1  0
  3 20  2  0
  4  5  1  0
  4  6  1  0
  6  7  1  0
  6  8  1  0
  6  9  1  0
  9 10  1  0
  9 18  2  0
 10 11  1  0
 10 15  2  0
 11 12  1  0
 11 13  1  0
 11 14  1  0
 15 16  1  0
 16 17  1  0
 16 18  1  0
 18 19  1  0
 20 21  1  0
 20 22  1  0
 22 23  1  0
 22 24  2  0
 24 25  1  0
 24 26  1  0
 26 27  1  0
M  END
$$$$
