F687_81
     RDKit          3D

 24 25  0  0  0  0  0  0  0  0999 V2000
  -21.6589   14.0155   28.0958 F   0  0  0  0  0  0  0  0  0  0  0  0
  -20.6479   13.4317   27.4341 C   0  0  0  0  0  0  0  0  0  0  0  0
  -20.7451   12.0918   27.0081 C   0  0  0  0  0  0  0  0  0  0  0  0
  -21.8544   11.2953   27.2281 N   0  0  0  0  0  0  0  0  0  0  0  0
  -21.8224   10.2971   27.0435 H   0  0  0  0  0  0  0  0  0  0  0  0
  -23.1435   11.7574   27.7224 C   0  0  0  0  0  0  0  0  0  0  0  0
  -23.4849   12.6006   27.1086 H   0  0  0  0  0  0  0  0  0  0  0  0
  -23.8780   10.9488   27.6273 H   0  0  0  0  0  0  0  0  0  0  0  0
  -23.1506   12.2099   29.1569 C   0  0  0  0  0  0  0  0  0  0  0  0
  -22.4616   11.5783   30.0765 N   0  0  0  0  0  0  0  0  0  0  0  0
  -22.7064   12.2578   31.2283 N   0  0  0  0  0  0  0  0  0  0  0  0
  -22.2930   11.9880   32.1399 H   0  0  0  0  0  0  0  0  0  0  0  0
  -23.5355   13.3038   31.0315 C   0  0  0  0  0  0  0  0  0  0  0  0
  -23.8364   13.9514   31.8142 H   0  0  0  0  0  0  0  0  0  0  0  0
  -23.8277   13.2910   29.7130 C   0  0  0  0  0  0  0  0  0  0  0  0
  -24.4493   13.9773   29.1956 H   0  0  0  0  0  0  0  0  0  0  0  0
  -19.6601   11.5280   26.3323 C   0  0  0  0  0  0  0  0  0  0  0  0
  -19.7036   10.5187   26.0153 H   0  0  0  0  0  0  0  0  0  0  0  0
  -18.5210   12.2921   26.0783 C   0  0  0  0  0  0  0  0  0  0  0  0
  -17.7033   11.8587   25.5620 H   0  0  0  0  0  0  0  0  0  0  0  0
  -18.4474   13.6226   26.4962 C   0  0  0  0  0  0  0  0  0  0  0  0
  -17.5769   14.1935   26.2961 H   0  0  0  0  0  0  0  0  0  0  0  0
  -19.5181   14.1953   27.1804 C   0  0  0  0  0  0  0  0  0  0  0  0
  -19.4719   15.2010   27.5094 H   0  0  0  0  0  0  0  0  0  0  0  0
  1  2  1  0
  2  3  1  0
  2 23  2  0
  3  4  1  0
  3 17  2  0
  4  5  1  0
  4  6  1  0
  6  7  1  0
  6  8  1  0
  6  9  1  0
  9 10  2  0
  9 15  1  0
 10 11  1  0
 11 12  1  0
 11 13  1  0
 13 14  1  0
 13 15  2  0
 15 16  1  0
 17 18  1  0
 17 19  1  0
 19 20  1  0
 19 21  2  0
 21 22  1  0
 21 23  1  0
 23 24  1  0
M  END
$$$$
