F126_58
     RDKit          3D

 23 23  0  0  0  0  0  0  0  0999 V2000
  -24.9616   12.5450   26.2877 Cl  0  0  0  0  0  0  0  0  0  0  0  0
  -24.5698   13.5574   27.6243 C   0  0  0  0  0  0  0  0  0  0  0  0
  -23.3667   13.4643   28.3421 C   0  0  0  0  0  0  0  0  0  0  0  0
  -22.2739   12.5072   28.0698 C   0  0  0  0  0  0  0  0  0  0  0  0
  -21.0671   12.6771   28.1590 O   0  0  0  0  0  0  0  0  0  0  0  0
  -22.6126   11.2590   27.6600 N   0  0  0  0  0  0  0  0  0  0  0  0
  -21.8595   10.5890   27.4620 H   0  0  0  0  0  0  0  0  0  0  0  0
  -23.6039   11.0120   27.5459 H   0  0  0  0  0  0  0  0  0  0  0  0
  -23.1680   14.3180   29.3779 N   0  0  0  0  0  0  0  0  0  0  0  0
  -24.0873   15.2140   29.7028 C   0  0  0  0  0  0  0  0  0  0  0  0
  -23.8166   16.1386   30.8625 C   0  0  0  0  0  0  0  0  0  0  0  0
  -22.8535   15.8588   31.3079 H   0  0  0  0  0  0  0  0  0  0  0  0
  -23.7102   17.5879   30.3919 C   0  0  0  0  0  0  0  0  0  0  0  0
  -24.6512   17.9438   29.9558 H   0  0  0  0  0  0  0  0  0  0  0  0
  -22.9304   17.6962   29.6293 H   0  0  0  0  0  0  0  0  0  0  0  0
  -23.4570   18.2489   31.2276 H   0  0  0  0  0  0  0  0  0  0  0  0
  -24.8897   15.9880   31.9409 C   0  0  0  0  0  0  0  0  0  0  0  0
  -25.8797   16.2771   31.5710 H   0  0  0  0  0  0  0  0  0  0  0  0
  -24.6586   16.6176   32.8072 H   0  0  0  0  0  0  0  0  0  0  0  0
  -24.9546   14.9508   32.2868 H   0  0  0  0  0  0  0  0  0  0  0  0
  -25.2394   15.3194   29.0341 N   0  0  0  0  0  0  0  0  0  0  0  0
  -25.4939   14.5191   28.0156 C   0  0  0  0  0  0  0  0  0  0  0  0
  -26.4147   14.6192   27.4981 H   0  0  0  0  0  0  0  0  0  0  0  0
  1  2  1  0
  2  3  1  0
  2 22  2  0
  3  4  1  0
  3  9  2  0
  4  5  2  0
  4  6  1  0
  6  7  1  0
  6  8  1  0
  9 10  1  0
 10 11  1  0
 10 21  2  0
 11 12  1  0
 11 13  1  0
 11 17  1  0
 13 14  1  0
 13 15  1  0
 13 16  1  0
 17 18  1  0
 17 19  1  0
 17 20  1  0
 21 22  1  0
 22 23  1  0
M  END
$$$$
