F126_77
     RDKit          3D

 23 23  0  0  0  0  0  0  0  0999 V2000
  -25.7224   12.3832   28.4378 Cl  0  0  0  0  0  0  0  0  0  0  0  0
  -24.0856   12.5339   27.9249 C   0  0  0  0  0  0  0  0  0  0  0  0
  -22.9845   12.3036   28.7651 C   0  0  0  0  0  0  0  0  0  0  0  0
  -23.0551   11.9047   30.1865 C   0  0  0  0  0  0  0  0  0  0  0  0
  -24.0405   11.7768   30.8978 O   0  0  0  0  0  0  0  0  0  0  0  0
  -21.8900   11.6375   30.8281 N   0  0  0  0  0  0  0  0  0  0  0  0
  -21.9290   11.3659   31.8180 H   0  0  0  0  0  0  0  0  0  0  0  0
  -20.9993   11.7209   30.3219 H   0  0  0  0  0  0  0  0  0  0  0  0
  -21.7387   12.4524   28.2482 N   0  0  0  0  0  0  0  0  0  0  0  0
  -21.5683   12.8075   26.9841 C   0  0  0  0  0  0  0  0  0  0  0  0
  -20.1628   12.9592   26.4597 C   0  0  0  0  0  0  0  0  0  0  0  0
  -20.2097   13.4848   25.4974 H   0  0  0  0  0  0  0  0  0  0  0  0
  -19.3132   13.8005   27.4104 C   0  0  0  0  0  0  0  0  0  0  0  0
  -19.2028   13.3200   28.3899 H   0  0  0  0  0  0  0  0  0  0  0  0
  -19.7664   14.7850   27.5742 H   0  0  0  0  0  0  0  0  0  0  0  0
  -18.3105   13.9563   26.9987 H   0  0  0  0  0  0  0  0  0  0  0  0
  -19.5231   11.5929   26.2134 C   0  0  0  0  0  0  0  0  0  0  0  0
  -19.4205   11.0199   27.1417 H   0  0  0  0  0  0  0  0  0  0  0  0
  -18.5243   11.7063   25.7775 H   0  0  0  0  0  0  0  0  0  0  0  0
  -20.1266   10.9969   25.5205 H   0  0  0  0  0  0  0  0  0  0  0  0
  -22.6016   13.0326   26.1672 N   0  0  0  0  0  0  0  0  0  0  0  0
  -23.8392   12.9042   26.6081 C   0  0  0  0  0  0  0  0  0  0  0  0
  -24.6455   13.0875   25.9432 H   0  0  0  0  0  0  0  0  0  0  0  0
  1  2  1  0
  2  3  1  0
  2 22  2  0
  3  4  1  0
  3  9  2  0
  4  5  2  0
  4  6  1  0
  6  7  1  0
  6  8  1  0
  9 10  1  0
 10 11  1  0
 10 21  2  0
 11 12  1  0
 11 13  1  0
 11 17  1  0
 13 14  1  0
 13 15  1  0
 13 16  1  0
 17 18  1  0
 17 19  1  0
 17 20  1  0
 21 22  1  0
 22 23  1  0
M  END
$$$$
