F503_74
     RDKit          3D

 29 30  0  0  0  0  0  0  0  0999 V2000
  -18.6345   13.6280   23.4463 F   0  0  0  0  0  0  0  0  0  0  0  0
  -18.8545   13.3651   24.7435 C   0  0  0  0  0  0  0  0  0  0  0  0
  -18.2576   14.1671   25.7188 C   0  0  0  0  0  0  0  0  0  0  0  0
  -17.3793   15.3347   25.3458 C   0  0  0  0  0  0  0  0  0  0  0  0
  -17.6895   15.7470   24.3771 H   0  0  0  0  0  0  0  0  0  0  0  0
  -16.3627   14.9537   25.1786 H   0  0  0  0  0  0  0  0  0  0  0  0
  -17.3552   16.4462   26.3898 C   0  0  0  0  0  0  0  0  0  0  0  0
  -18.6593   17.1318   26.6473 C   0  0  0  0  0  0  0  0  0  0  0  0
  -19.5586   16.6412   27.2994 O   0  0  0  0  0  0  0  0  0  0  0  0
  -18.8239   18.3586   26.0941 N   0  0  0  0  0  0  0  0  0  0  0  0
  -18.0766   18.7161   25.5158 H   0  0  0  0  0  0  0  0  0  0  0  0
  -20.0112   19.1539   26.2787 C   0  0  0  0  0  0  0  0  0  0  0  0
  -20.8588   18.6428   25.8147 H   0  0  0  0  0  0  0  0  0  0  0  0
  -20.2024   19.2813   27.3471 H   0  0  0  0  0  0  0  0  0  0  0  0
  -19.8575   20.1278   25.8073 H   0  0  0  0  0  0  0  0  0  0  0  0
  -16.0828   17.2583   26.6496 C   0  0  0  0  0  0  0  0  0  0  0  0
  -16.1892   18.2911   26.9691 H   0  0  0  0  0  0  0  0  0  0  0  0
  -15.1939   17.0871   26.0550 H   0  0  0  0  0  0  0  0  0  0  0  0
  -16.4752   16.1921   27.6158 C   0  0  0  0  0  0  0  0  0  0  0  0
  -16.8459   16.4975   28.5882 H   0  0  0  0  0  0  0  0  0  0  0  0
  -15.8670   15.2952   27.6486 H   0  0  0  0  0  0  0  0  0  0  0  0
  -18.4990   13.8566   27.0575 C   0  0  0  0  0  0  0  0  0  0  0  0
  -18.0611   14.4389   27.8271 H   0  0  0  0  0  0  0  0  0  0  0  0
  -19.3146   12.7760   27.3956 C   0  0  0  0  0  0  0  0  0  0  0  0
  -19.4913   12.5491   28.4177 H   0  0  0  0  0  0  0  0  0  0  0  0
  -19.9006   11.9915   26.4028 C   0  0  0  0  0  0  0  0  0  0  0  0
  -20.5193   11.1719   26.6688 H   0  0  0  0  0  0  0  0  0  0  0  0
  -19.6697   12.2864   25.0632 C   0  0  0  0  0  0  0  0  0  0  0  0
  -20.1048   11.7021   24.2948 H   0  0  0  0  0  0  0  0  0  0  0  0
  1  2  1  0
  2  3  1  0
  2 28  2  0
  3  4  1  0
  3 22  2  0
  4  5  1  0
  4  6  1  0
  4  7  1  0
  7  8  1  0
  7 16  1  0
  7 19  1  0
  8  9  2  0
  8 10  1  0
 10 11  1  0
 10 12  1  0
 12 13  1  0
 12 14  1  0
 12 15  1  0
 16 17  1  0
 16 18  1  0
 16 19  1  0
 19 20  1  0
 19 21  1  0
 22 23  1  0
 22 24  1  0
 24 25  1  0
 24 26  2  0
 26 27  1  0
 26 28  1  0
 28 29  1  0
M  END
$$$$
