F467_69
     RDKit          3D

 24 24  0  0  0  0  0  0  0  0999 V2000
  -22.6307   10.0753   30.6341 O   0  0  0  0  0  0  0  0  0  0  0  0
  -23.0015    9.9658   29.7402 H   0  0  0  0  0  0  0  0  0  0  0  0
  -22.7315   11.4561   30.9618 C   0  0  0  0  0  0  0  0  0  0  0  0
  -22.2763   11.6158   31.9439 H   0  0  0  0  0  0  0  0  0  0  0  0
  -22.1602   12.0168   30.2155 H   0  0  0  0  0  0  0  0  0  0  0  0
  -24.1938   11.9199   30.9407 C   0  0  0  0  0  0  0  0  0  0  0  0
  -24.8058   11.3206   31.6250 H   0  0  0  0  0  0  0  0  0  0  0  0
  -24.6029   11.7253   29.9412 H   0  0  0  0  0  0  0  0  0  0  0  0
  -24.3199   13.3668   31.2239 N   0  0  0  0  0  0  0  0  0  0  0  0
  -24.0041   13.7638   32.5958 C   0  0  0  0  0  0  0  0  0  0  0  0
  -23.8662   12.8948   33.2502 H   0  0  0  0  0  0  0  0  0  0  0  0
  -24.8179   14.3583   33.0251 H   0  0  0  0  0  0  0  0  0  0  0  0
  -23.0749   14.3432   32.6233 H   0  0  0  0  0  0  0  0  0  0  0  0
  -24.7229   14.2281   30.2326 C   0  0  0  0  0  0  0  0  0  0  0  0
  -24.0372   15.3794   30.1757 N   0  0  0  0  0  0  0  0  0  0  0  0
  -23.3028   15.4991   30.8820 H   0  0  0  0  0  0  0  0  0  0  0  0
  -24.2824   16.3492   29.2448 C   0  0  0  0  0  0  0  0  0  0  0  0
  -23.6673   17.2133   29.3055 H   0  0  0  0  0  0  0  0  0  0  0  0
  -25.2773   16.1541   28.3157 C   0  0  0  0  0  0  0  0  0  0  0  0
  -25.4846   16.8928   27.5831 H   0  0  0  0  0  0  0  0  0  0  0  0
  -26.0321   14.9680   28.3387 C   0  0  0  0  0  0  0  0  0  0  0  0
  -26.8093   14.8167   27.6285 H   0  0  0  0  0  0  0  0  0  0  0  0
  -25.7623   14.0128   29.2896 C   0  0  0  0  0  0  0  0  0  0  0  0
  -26.3351   13.1249   29.3281 H   0  0  0  0  0  0  0  0  0  0  0  0
  1  2  1  0
  1  3  1  0
  3  4  1  0
  3  5  1  0
  3  6  1  0
  6  7  1  0
  6  8  1  0
  6  9  1  0
  9 10  1  0
  9 14  1  0
 10 11  1  0
 10 12  1  0
 10 13  1  0
 14 15  1  0
 14 23  2  0
 15 16  1  0
 15 17  2  0
 17 18  1  0
 17 19  1  0
 19 20  1  0
 19 21  2  0
 21 22  1  0
 21 23  1  0
 23 24  1  0
M  END
$$$$
