F603_62
     RDKit          3D

 24 25  0  0  0  0  0  0  0  0999 V2000
  -19.9785   13.0540   27.5480 S   0  0  0  0  0  0  0  0  0  0  0  0
  -19.3304   12.3296   28.6233 O   0  0  0  0  0  0  0  0  0  0  0  0
  -19.9707   14.5075   27.5200 O   0  0  0  0  0  0  0  0  0  0  0  0
  -21.6780   12.5192   27.4307 C   0  0  0  0  0  0  0  0  0  0  0  0
  -22.1137   12.9797   26.5396 H   0  0  0  0  0  0  0  0  0  0  0  0
  -21.6788   11.4311   27.3230 H   0  0  0  0  0  0  0  0  0  0  0  0
  -22.4234   12.9410   28.6480 C   0  0  0  0  0  0  0  0  0  0  0  0
  -22.4890   12.1779   29.7822 N   0  0  0  0  0  0  0  0  0  0  0  0
  -22.0797   11.2422   29.9151 H   0  0  0  0  0  0  0  0  0  0  0  0
  -23.1950   12.8662   30.7126 C   0  0  0  0  0  0  0  0  0  0  0  0
  -23.5357   14.0496   30.0909 C   0  0  0  0  0  0  0  0  0  0  0  0
  -23.0392   14.0656   28.8046 N   0  0  0  0  0  0  0  0  0  0  0  0
  -24.2826   15.0001   30.7994 C   0  0  0  0  0  0  0  0  0  0  0  0
  -24.5490   15.9096   30.3281 H   0  0  0  0  0  0  0  0  0  0  0  0
  -24.6612   14.7268   32.1077 C   0  0  0  0  0  0  0  0  0  0  0  0
  -25.2269   15.4378   32.6526 H   0  0  0  0  0  0  0  0  0  0  0  0
  -24.2987   13.5060   32.7232 C   0  0  0  0  0  0  0  0  0  0  0  0
  -24.5976   13.3178   33.7237 H   0  0  0  0  0  0  0  0  0  0  0  0
  -23.5601   12.5600   32.0306 C   0  0  0  0  0  0  0  0  0  0  0  0
  -23.2826   11.6410   32.4790 H   0  0  0  0  0  0  0  0  0  0  0  0
  -19.2803   12.4831   26.0195 C   0  0  0  0  0  0  0  0  0  0  0  0
  -19.3699   11.3963   25.9759 H   0  0  0  0  0  0  0  0  0  0  0  0
  -18.2280   12.7737   25.9956 H   0  0  0  0  0  0  0  0  0  0  0  0
  -19.8155   12.9499   25.1898 H   0  0  0  0  0  0  0  0  0  0  0  0
  1  2  2  0
  1  3  2  0
  1  4  1  0
  1 21  1  0
  4  5  1  0
  4  6  1  0
  4  7  1  0
  7  8  1  0
  7 12  2  0
  8  9  1  0
  8 10  1  0
 10 11  1  0
 10 19  2  0
 11 12  1  0
 11 13  2  0
 13 14  1  0
 13 15  1  0
 15 16  1  0
 15 17  2  0
 17 18  1  0
 17 19  1  0
 19 20  1  0
 21 22  1  0
 21 23  1  0
 21 24  1  0
M  END
$$$$
