F760_63
     RDKit          3D

 17 18  0  0  0  0  0  0  0  0999 V2000
  -17.4557   13.4995   23.4034 Br  0  0  0  0  0  0  0  0  0  0  0  0
  -18.5841   13.3930   24.9170 C   0  0  0  0  0  0  0  0  0  0  0  0
  -19.4050   12.2819   25.0948 C   0  0  0  0  0  0  0  0  0  0  0  0
  -19.4137   11.4879   24.3952 H   0  0  0  0  0  0  0  0  0  0  0  0
  -20.2163   12.2508   26.2211 C   0  0  0  0  0  0  0  0  0  0  0  0
  -21.1061   11.2563   26.5992 N   0  0  0  0  0  0  0  0  0  0  0  0
  -21.3091   10.3796   26.1038 H   0  0  0  0  0  0  0  0  0  0  0  0
  -21.7248   11.5720   27.7614 C   0  0  0  0  0  0  0  0  0  0  0  0
  -22.5391   10.8259   28.2526 O   0  0  0  0  0  0  0  0  0  0  0  0
  -21.2131   12.9267   28.2453 C   0  0  0  0  0  0  0  0  0  0  0  0
  -22.0373   13.6425   28.2862 H   0  0  0  0  0  0  0  0  0  0  0  0
  -20.7165   12.8119   29.2116 H   0  0  0  0  0  0  0  0  0  0  0  0
  -20.2391   13.2633   27.1589 C   0  0  0  0  0  0  0  0  0  0  0  0
  -19.4181   14.3719   26.9828 C   0  0  0  0  0  0  0  0  0  0  0  0
  -19.4189   15.1612   27.6917 H   0  0  0  0  0  0  0  0  0  0  0  0
  -18.5903   14.4336   25.8586 C   0  0  0  0  0  0  0  0  0  0  0  0
  -17.9605   15.2730   25.7135 H   0  0  0  0  0  0  0  0  0  0  0  0
  1  2  1  0
  2  3  1  0
  2 16  2  0
  3  4  1  0
  3  5  2  0
  5  6  1  0
  5 13  1  0
  6  7  1  0
  6  8  1  0
  8  9  2  0
  8 10  1  0
 10 11  1  0
 10 12  1  0
 10 13  1  0
 13 14  2  0
 14 15  1  0
 14 16  1  0
 16 17  1  0
M  END
$$$$
