F501_98
     RDKit          3D

 23 24  0  0  0  0  0  0  0  0999 V2000
  -19.4143   12.1323   22.9719 C   0  0  0  0  0  0  0  0  0  0  0  0
  -20.4150   12.1190   23.4116 H   0  0  0  0  0  0  0  0  0  0  0  0
  -18.9359   11.1584   23.0990 H   0  0  0  0  0  0  0  0  0  0  0  0
  -19.4880   12.3845   21.9114 H   0  0  0  0  0  0  0  0  0  0  0  0
  -18.6060   13.1222   23.6298 N   0  0  0  0  0  0  0  0  0  0  0  0
  -17.4647   13.5364   23.0600 N   0  0  0  0  0  0  0  0  0  0  0  0
  -16.9147   14.4197   23.8592 N   0  0  0  0  0  0  0  0  0  0  0  0
  -17.7303   14.5505   24.9256 C   0  0  0  0  0  0  0  0  0  0  0  0
  -18.7997   13.7501   24.7908 C   0  0  0  0  0  0  0  0  0  0  0  0
  -19.9381   13.6218   25.7378 C   0  0  0  0  0  0  0  0  0  0  0  0
  -20.8009   14.1437   25.3044 H   0  0  0  0  0  0  0  0  0  0  0  0
  -20.2270   12.5726   25.8526 H   0  0  0  0  0  0  0  0  0  0  0  0
  -19.5859   14.2893   27.0897 C   0  0  0  0  0  0  0  0  0  0  0  0
  -18.9165   13.2861   28.0344 C   0  0  0  0  0  0  0  0  0  0  0  0
  -19.6652   12.6303   28.7926 O   0  0  0  0  0  0  0  0  0  0  0  0
  -17.6688   13.2141   28.0210 O   0  0  0  0  0  0  0  0  0  0  0  0
  -18.7887   15.6065   26.9037 C   0  0  0  0  0  0  0  0  0  0  0  0
  -19.4352   16.3223   26.3772 H   0  0  0  0  0  0  0  0  0  0  0  0
  -18.5509   16.0616   27.8724 H   0  0  0  0  0  0  0  0  0  0  0  0
  -17.4870   15.4295   26.0902 C   0  0  0  0  0  0  0  0  0  0  0  0
  -16.7056   14.9863   26.7179 H   0  0  0  0  0  0  0  0  0  0  0  0
  -17.1238   16.4099   25.7612 H   0  0  0  0  0  0  0  0  0  0  0  0
  -20.5314   14.5432   27.5886 H   0  0  0  0  0  0  0  0  0  0  0  0
  1  2  1  0
  1  3  1  0
  1  4  1  0
  1  5  1  0
  5  6  1  0
  5  9  1  0
  6  7  2  0
  7  8  1  0
  8  9  2  0
  8 20  1  0
  9 10  1  0
 10 11  1  0
 10 12  1  0
 10 13  1  0
 13 14  1  0
 13 17  1  0
 13 23  1  0
 14 15  1  0
 14 16  2  0
 17 18  1  0
 17 19  1  0
 17 20  1  0
 20 21  1  0
 20 22  1  0
M  END
$$$$
