F760_62
     RDKit          3D

 17 18  0  0  0  0  0  0  0  0999 V2000
  -17.7267   13.1909   23.5706 Br  0  0  0  0  0  0  0  0  0  0  0  0
  -18.8572   13.0869   25.0828 C   0  0  0  0  0  0  0  0  0  0  0  0
  -19.6614   11.9657   25.2733 C   0  0  0  0  0  0  0  0  0  0  0  0
  -19.6560   11.1625   24.5842 H   0  0  0  0  0  0  0  0  0  0  0  0
  -20.4750   11.9370   26.3979 C   0  0  0  0  0  0  0  0  0  0  0  0
  -21.3504   10.9339   26.7870 N   0  0  0  0  0  0  0  0  0  0  0  0
  -21.5385   10.0477   26.3028 H   0  0  0  0  0  0  0  0  0  0  0  0
  -21.9768   11.2553   27.9436 C   0  0  0  0  0  0  0  0  0  0  0  0
  -22.7809   10.5033   28.4426 O   0  0  0  0  0  0  0  0  0  0  0  0
  -21.4873   12.6241   28.4106 C   0  0  0  0  0  0  0  0  0  0  0  0
  -22.3226   13.3275   28.4401 H   0  0  0  0  0  0  0  0  0  0  0  0
  -20.9915   12.5297   29.3795 H   0  0  0  0  0  0  0  0  0  0  0  0
  -20.5158   12.9613   27.3222 C   0  0  0  0  0  0  0  0  0  0  0  0
  -19.7117   14.0800   27.1334 C   0  0  0  0  0  0  0  0  0  0  0  0
  -19.7264   14.8785   27.8318 H   0  0  0  0  0  0  0  0  0  0  0  0
  -18.8820   14.1396   26.0104 C   0  0  0  0  0  0  0  0  0  0  0  0
  -18.2648   14.9867   25.8558 H   0  0  0  0  0  0  0  0  0  0  0  0
  1  2  1  0
  2  3  1  0
  2 16  2  0
  3  4  1  0
  3  5  2  0
  5  6  1  0
  5 13  1  0
  6  7  1  0
  6  8  1  0
  8  9  2  0
  8 10  1  0
 10 11  1  0
 10 12  1  0
 10 13  1  0
 13 14  2  0
 14 15  1  0
 14 16  1  0
 16 17  1  0
M  END
$$$$
