F275_32
     RDKit          3D

 20 20  0  0  0  0  0  0  0  0999 V2000
  -25.8905   14.4936   27.9615 S   0  0  0  0  0  0  0  0  0  0  0  0
  -25.9042   14.1334   26.5624 O   0  0  0  0  0  0  0  0  0  0  0  0
  -27.1000   14.5450   28.7539 O   0  0  0  0  0  0  0  0  0  0  0  0
  -25.1583   16.0082   28.0759 N   0  0  0  0  0  0  0  0  0  0  0  0
  -25.6383   16.7139   27.5127 H   0  0  0  0  0  0  0  0  0  0  0  0
  -24.9989   16.2904   29.0465 H   0  0  0  0  0  0  0  0  0  0  0  0
  -24.7211   13.4736   28.7930 C   0  0  0  0  0  0  0  0  0  0  0  0
  -23.4789   13.2033   28.2112 C   0  0  0  0  0  0  0  0  0  0  0  0
  -23.2345   13.5884   27.2551 H   0  0  0  0  0  0  0  0  0  0  0  0
  -22.5654   12.4258   28.9068 C   0  0  0  0  0  0  0  0  0  0  0  0
  -21.3770   12.1668   28.3421 F   0  0  0  0  0  0  0  0  0  0  0  0
  -22.8324   11.9111   30.1666 C   0  0  0  0  0  0  0  0  0  0  0  0
  -22.1044   11.3241   30.6649 H   0  0  0  0  0  0  0  0  0  0  0  0
  -24.0633   12.1848   30.7585 C   0  0  0  0  0  0  0  0  0  0  0  0
  -24.3673   11.6845   32.1404 C   0  0  0  0  0  0  0  0  0  0  0  0
  -23.8441   10.7435   32.3405 H   0  0  0  0  0  0  0  0  0  0  0  0
  -25.4385   11.4914   32.2585 H   0  0  0  0  0  0  0  0  0  0  0  0
  -24.0582   12.4259   32.8830 H   0  0  0  0  0  0  0  0  0  0  0  0
  -24.9951   12.9685   30.0716 C   0  0  0  0  0  0  0  0  0  0  0  0
  -25.9293   13.1936   30.5237 H   0  0  0  0  0  0  0  0  0  0  0  0
  1  2  2  0
  1  3  2  0
  1  4  1  0
  1  7  1  0
  4  5  1  0
  4  6  1  0
  7  8  1  0
  7 19  2  0
  8  9  1  0
  8 10  2  0
 10 11  1  0
 10 12  1  0
 12 13  1  0
 12 14  2  0
 14 15  1  0
 14 19  1  0
 15 16  1  0
 15 17  1  0
 15 18  1  0
 19 20  1  0
M  END
$$$$
