F741_41
     RDKit          3D

 25 27  0  0  0  0  0  0  0  0999 V2000
  -19.8778   11.5853   26.2034 O   0  0  0  0  0  0  0  0  0  0  0  0
  -20.4568   12.3053   27.0147 C   0  0  0  0  0  0  0  0  0  0  0  0
  -19.8687   13.4790   27.3804 N   0  0  0  0  0  0  0  0  0  0  0  0
  -20.4039   14.0519   28.0533 H   0  0  0  0  0  0  0  0  0  0  0  0
  -18.6112   13.9431   26.8977 C   0  0  0  0  0  0  0  0  0  0  0  0
  -17.7811   13.3083   27.1988 H   0  0  0  0  0  0  0  0  0  0  0  0
  -18.3239   15.4168   26.7978 C   0  0  0  0  0  0  0  0  0  0  0  0
  -19.1055   16.1200   27.0587 H   0  0  0  0  0  0  0  0  0  0  0  0
  -17.3229   15.7524   27.0420 H   0  0  0  0  0  0  0  0  0  0  0  0
  -18.5050   14.6027   25.5507 C   0  0  0  0  0  0  0  0  0  0  0  0
  -17.6303   14.3819   24.9512 H   0  0  0  0  0  0  0  0  0  0  0  0
  -19.4136   14.7463   24.9771 H   0  0  0  0  0  0  0  0  0  0  0  0
  -21.7361   11.9978   27.6109 C   0  0  0  0  0  0  0  0  0  0  0  0
  -22.4947   12.8428   28.3817 C   0  0  0  0  0  0  0  0  0  0  0  0
  -23.6075   12.1041   28.7075 N   0  0  0  0  0  0  0  0  0  0  0  0
  -23.5855   10.8508   28.1810 N   0  0  0  0  0  0  0  0  0  0  0  0
  -22.4514   10.8043   27.5243 C   0  0  0  0  0  0  0  0  0  0  0  0
  -22.1263    9.9465   26.9895 H   0  0  0  0  0  0  0  0  0  0  0  0
  -24.6302   12.6377   29.5016 C   0  0  0  0  0  0  0  0  0  0  0  0
  -25.4464   11.9927   29.6996 H   0  0  0  0  0  0  0  0  0  0  0  0
  -24.4536   13.9259   29.9280 C   0  0  0  0  0  0  0  0  0  0  0  0
  -25.1814   14.3997   30.5334 H   0  0  0  0  0  0  0  0  0  0  0  0
  -23.2787   14.6642   29.5665 C   0  0  0  0  0  0  0  0  0  0  0  0
  -23.1640   15.6606   29.9092 H   0  0  0  0  0  0  0  0  0  0  0  0
  -22.3290   14.1616   28.8254 N   0  0  0  0  0  0  0  0  0  0  0  0
  1  2  2  0
  2  3  1  0
  2 13  1  0
  3  4  1  0
  3  5  1  0
  5  6  1  0
  5  7  1  0
  5 10  1  0
  7  8  1  0
  7  9  1  0
  7 10  1  0
 10 11  1  0
 10 12  1  0
 13 14  2  0
 13 17  1  0
 14 15  1  0
 14 25  1  0
 15 16  1  0
 15 19  1  0
 16 17  2  0
 17 18  1  0
 19 20  1  0
 19 21  2  0
 21 22  1  0
 21 23  1  0
 23 24  1  0
 23 25  2  0
M  END
$$$$
