F650_30
     RDKit          3D

 23 24  0  0  0  0  0  0  0  0999 V2000
  -17.5705   19.9460   25.4001 O   0  0  0  0  0  0  0  0  0  0  0  0
  -17.7260   19.3581   26.4659 C   0  0  0  0  0  0  0  0  0  0  0  0
  -18.9180   19.5781   27.1366 N   0  0  0  0  0  0  0  0  0  0  0  0
  -19.3086   19.0932   28.4560 C   0  0  0  0  0  0  0  0  0  0  0  0
  -19.2228   18.0084   28.5284 H   0  0  0  0  0  0  0  0  0  0  0  0
  -18.6500   19.5597   29.1960 H   0  0  0  0  0  0  0  0  0  0  0  0
  -20.7566   19.5381   28.6257 C   0  0  0  0  0  0  0  0  0  0  0  0
  -21.4318   18.7656   28.2372 H   0  0  0  0  0  0  0  0  0  0  0  0
  -21.0190   19.7271   29.6691 H   0  0  0  0  0  0  0  0  0  0  0  0
  -20.8449   20.7801   27.7524 C   0  0  0  0  0  0  0  0  0  0  0  0
  -20.4246   21.6399   28.2880 H   0  0  0  0  0  0  0  0  0  0  0  0
  -21.8687   21.0245   27.4567 H   0  0  0  0  0  0  0  0  0  0  0  0
  -19.9618   20.4205   26.5691 C   0  0  0  0  0  0  0  0  0  0  0  0
  -19.5445   21.3021   26.0744 H   0  0  0  0  0  0  0  0  0  0  0  0
  -20.5064   19.8225   25.8290 H   0  0  0  0  0  0  0  0  0  0  0  0
  -16.6954   18.5182   27.0456 C   0  0  0  0  0  0  0  0  0  0  0  0
  -15.3947   18.9017   27.1872 C   0  0  0  0  0  0  0  0  0  0  0  0
  -14.9045   19.8100   26.9485 H   0  0  0  0  0  0  0  0  0  0  0  0
  -14.7544   17.8506   27.7235 N   0  0  0  0  0  0  0  0  0  0  0  0
  -13.7424   17.8248   27.9542 H   0  0  0  0  0  0  0  0  0  0  0  0
  -15.5875   16.7932   27.9304 N   0  0  0  0  0  0  0  0  0  0  0  0
  -16.7509   17.2018   27.5105 C   0  0  0  0  0  0  0  0  0  0  0  0
  -17.6155   16.5882   27.5182 H   0  0  0  0  0  0  0  0  0  0  0  0
  1  2  2  0
  2  3  1  0
  2 16  1  0
  3  4  1  0
  3 13  1  0
  4  5  1  0
  4  6  1  0
  4  7  1  0
  7  8  1  0
  7  9  1  0
  7 10  1  0
 10 11  1  0
 10 12  1  0
 10 13  1  0
 13 14  1  0
 13 15  1  0
 16 17  2  0
 16 22  1  0
 17 18  1  0
 17 19  1  0
 19 20  1  0
 19 21  1  0
 21 22  2  0
 22 23  1  0
M  END
$$$$
