F274_77
     RDKit          3D

 26 27  0  0  0  0  0  0  0  0999 V2000
  -22.8884   12.3478   30.8181 O   0  0  0  0  0  0  0  0  0  0  0  0
  -23.5891   13.2181   30.2857 C   0  0  0  0  0  0  0  0  0  0  0  0
  -23.8098   13.1787   28.9023 N   0  0  0  0  0  0  0  0  0  0  0  0
  -23.2474   12.1069   28.0848 C   0  0  0  0  0  0  0  0  0  0  0  0
  -23.4356   11.1503   28.5866 H   0  0  0  0  0  0  0  0  0  0  0  0
  -23.7564   12.0745   27.1154 H   0  0  0  0  0  0  0  0  0  0  0  0
  -21.7934   12.3173   27.9079 C   0  0  0  0  0  0  0  0  0  0  0  0
  -21.0208   12.2118   28.9914 O   0  0  0  0  0  0  0  0  0  0  0  0
  -19.7409   12.4408   28.6695 N   0  0  0  0  0  0  0  0  0  0  0  0
  -19.7047   12.6865   27.4054 C   0  0  0  0  0  0  0  0  0  0  0  0
  -18.4301   12.9792   26.7181 C   0  0  0  0  0  0  0  0  0  0  0  0
  -18.6063   13.3569   25.7054 H   0  0  0  0  0  0  0  0  0  0  0  0
  -17.8211   12.0723   26.6389 H   0  0  0  0  0  0  0  0  0  0  0  0
  -17.8556   13.7355   27.2629 H   0  0  0  0  0  0  0  0  0  0  0  0
  -20.9871   12.6231   26.8799 C   0  0  0  0  0  0  0  0  0  0  0  0
  -21.2784   12.7845   25.8745 H   0  0  0  0  0  0  0  0  0  0  0  0
  -24.5621   14.1230   28.2338 N   0  0  0  0  0  0  0  0  0  0  0  0
  -25.1055   15.1026   28.8866 C   0  0  0  0  0  0  0  0  0  0  0  0
  -25.9183   16.1206   28.1378 C   0  0  0  0  0  0  0  0  0  0  0  0
  -26.7149   15.6122   27.5852 H   0  0  0  0  0  0  0  0  0  0  0  0
  -25.2716   16.6450   27.4274 H   0  0  0  0  0  0  0  0  0  0  0  0
  -26.3684   16.8518   28.8136 H   0  0  0  0  0  0  0  0  0  0  0  0
  -24.9410   15.2224   30.2973 C   0  0  0  0  0  0  0  0  0  0  0  0
  -25.4005   16.0322   30.8029 H   0  0  0  0  0  0  0  0  0  0  0  0
  -24.2028   14.3025   30.9824 C   0  0  0  0  0  0  0  0  0  0  0  0
  -24.0617   14.3632   32.0292 H   0  0  0  0  0  0  0  0  0  0  0  0
  1  2  2  0
  2  3  1  0
  2 25  1  0
  3  4  1  0
  3 17  1  0
  4  5  1  0
  4  6  1  0
  4  7  1  0
  7  8  1  0
  7 15  2  0
  8  9  1  0
  9 10  2  0
 10 11  1  0
 10 15  1  0
 11 12  1  0
 11 13  1  0
 11 14  1  0
 15 16  1  0
 17 18  2  0
 18 19  1  0
 18 23  1  0
 19 20  1  0
 19 21  1  0
 19 22  1  0
 23 24  1  0
 23 25  2  0
 25 26  1  0
M  END
$$$$
