F13_40
     RDKit          3D

 16 16  0  0  0  0  0  0  0  0999 V2000
  -19.4914   12.4685   28.1382 Br  0  0  0  0  0  0  0  0  0  0  0  0
  -21.3561   12.4538   28.2331 C   0  0  0  0  0  0  0  0  0  0  0  0
  -22.2392   12.7895   27.2699 C   0  0  0  0  0  0  0  0  0  0  0  0
  -22.1051   13.1202   26.2734 H   0  0  0  0  0  0  0  0  0  0  0  0
  -23.4635   12.6126   27.8180 N   0  0  0  0  0  0  0  0  0  0  0  0
  -24.7582   12.8430   27.2079 C   0  0  0  0  0  0  0  0  0  0  0  0
  -24.5775   13.0709   26.1516 H   0  0  0  0  0  0  0  0  0  0  0  0
  -25.3194   11.9042   27.2720 H   0  0  0  0  0  0  0  0  0  0  0  0
  -25.5067   13.9825   27.8813 C   0  0  0  0  0  0  0  0  0  0  0  0
  -26.4431   14.1753   27.3502 H   0  0  0  0  0  0  0  0  0  0  0  0
  -24.9160   14.9043   27.9039 H   0  0  0  0  0  0  0  0  0  0  0  0
  -25.8392   13.6184   29.2176 O   0  0  0  0  0  0  0  0  0  0  0  0
  -25.0232   13.2953   29.6385 H   0  0  0  0  0  0  0  0  0  0  0  0
  -23.3854   12.1680   29.1023 N   0  0  0  0  0  0  0  0  0  0  0  0
  -22.1034   12.0776   29.3438 C   0  0  0  0  0  0  0  0  0  0  0  0
  -21.7050   11.7561   30.2713 H   0  0  0  0  0  0  0  0  0  0  0  0
  1  2  1  0
  2  3  2  0
  2 15  1  0
  3  4  1  0
  3  5  1  0
  5  6  1  0
  5 14  1  0
  6  7  1  0
  6  8  1  0
  6  9  1  0
  9 10  1  0
  9 11  1  0
  9 12  1  0
 12 13  1  0
 14 15  2  0
 15 16  1  0
M  END
$$$$
