F374_28
     RDKit          3D

 18 18  0  0  0  0  0  0  0  0999 V2000
  -19.6634   15.3037   27.4001 O   0  0  0  0  0  0  0  0  0  0  0  0
  -19.0223   15.2852   26.3507 C   0  0  0  0  0  0  0  0  0  0  0  0
  -18.3569   16.4284   26.0017 N   0  0  0  0  0  0  0  0  0  0  0  0
  -17.7744   16.3807   25.1537 H   0  0  0  0  0  0  0  0  0  0  0  0
  -18.4210   17.6554   26.7673 C   0  0  0  0  0  0  0  0  0  0  0  0
  -19.3807   18.1413   26.5592 H   0  0  0  0  0  0  0  0  0  0  0  0
  -18.3993   17.3918   27.8295 H   0  0  0  0  0  0  0  0  0  0  0  0
  -17.2732   18.5864   26.4291 C   0  0  0  0  0  0  0  0  0  0  0  0
  -17.3402   19.5056   27.0187 H   0  0  0  0  0  0  0  0  0  0  0  0
  -16.3093   18.1118   26.6403 H   0  0  0  0  0  0  0  0  0  0  0  0
  -17.2881   18.8552   25.3677 H   0  0  0  0  0  0  0  0  0  0  0  0
  -18.8836   14.1584   25.4615 C   0  0  0  0  0  0  0  0  0  0  0  0
  -19.2177   12.8817   25.8096 N   0  0  0  0  0  0  0  0  0  0  0  0
  -18.9688   12.1127   24.7796 N   0  0  0  0  0  0  0  0  0  0  0  0
  -18.4870   12.8874   23.7961 N   0  0  0  0  0  0  0  0  0  0  0  0
  -18.2115   12.5169   22.8674 H   0  0  0  0  0  0  0  0  0  0  0  0
  -18.4227   14.1527   24.1863 C   0  0  0  0  0  0  0  0  0  0  0  0
  -18.0722   14.9363   23.5654 H   0  0  0  0  0  0  0  0  0  0  0  0
  1  2  2  0
  2  3  1  0
  2 12  1  0
  3  4  1  0
  3  5  1  0
  5  6  1  0
  5  7  1  0
  5  8  1  0
  8  9  1  0
  8 10  1  0
  8 11  1  0
 12 13  1  0
 12 17  2  0
 13 14  2  0
 14 15  1  0
 15 16  1  0
 15 17  1  0
 17 18  1  0
M  END
$$$$
