F309_33
     RDKit          3D

 14 14  0  0  0  0  0  0  0  0999 V2000
  -25.4848   13.3807   26.0465 O   0  0  0  0  0  0  0  0  0  0  0  0
  -24.6957   12.7136   26.7715 C   0  0  0  0  0  0  0  0  0  0  0  0
  -24.0372   11.7572   26.2657 O   0  0  0  0  0  0  0  0  0  0  0  0
  -24.5440   13.0461   28.1823 C   0  0  0  0  0  0  0  0  0  0  0  0
  -25.1655   14.0712   28.8760 C   0  0  0  0  0  0  0  0  0  0  0  0
  -26.1346   15.0481   28.2767 C   0  0  0  0  0  0  0  0  0  0  0  0
  -26.4865   15.7661   29.0246 H   0  0  0  0  0  0  0  0  0  0  0  0
  -27.0133   14.5283   27.8819 H   0  0  0  0  0  0  0  0  0  0  0  0
  -25.6590   15.6199   27.4728 H   0  0  0  0  0  0  0  0  0  0  0  0
  -24.8016   14.1191   30.2314 C   0  0  0  0  0  0  0  0  0  0  0  0
  -25.1786   14.8347   30.9151 H   0  0  0  0  0  0  0  0  0  0  0  0
  -23.9105   13.1470   30.5817 C   0  0  0  0  0  0  0  0  0  0  0  0
  -23.4866   12.9746   31.5369 H   0  0  0  0  0  0  0  0  0  0  0  0
  -23.4977   12.1459   29.2440 S   0  0  0  0  0  0  0  0  0  0  0  0
  1  2  1  0
  2  3  2  0
  2  4  1  0
  4  5  2  0
  4 14  1  0
  5  6  1  0
  5 10  1  0
  6  7  1  0
  6  8  1  0
  6  9  1  0
 10 11  1  0
 10 12  2  0
 12 13  1  0
 12 14  1  0
M  END
$$$$
