F616_77
     RDKit          3D

 26 26  0  0  0  0  0  0  0  0999 V2000
  -19.3313   12.4204   26.7652 S   0  0  0  0  0  0  0  0  0  0  0  0
  -18.9158   11.6441   25.6173 O   0  0  0  0  0  0  0  0  0  0  0  0
  -18.9044   12.0822   28.1062 O   0  0  0  0  0  0  0  0  0  0  0  0
  -21.0137   12.4979   26.7969 N   0  0  0  0  0  0  0  0  0  0  0  0
  -21.4862   11.7968   26.2207 H   0  0  0  0  0  0  0  0  0  0  0  0
  -21.7022   12.9129   28.0340 C   0  0  0  0  0  0  0  0  0  0  0  0
  -21.4289   12.2052   28.8245 H   0  0  0  0  0  0  0  0  0  0  0  0
  -21.3833   13.9141   28.3437 H   0  0  0  0  0  0  0  0  0  0  0  0
  -23.2193   12.8762   27.8355 C   0  0  0  0  0  0  0  0  0  0  0  0
  -23.4822   13.1920   26.8175 H   0  0  0  0  0  0  0  0  0  0  0  0
  -23.5670   11.8392   27.9260 H   0  0  0  0  0  0  0  0  0  0  0  0
  -23.9686   13.7256   28.8388 C   0  0  0  0  0  0  0  0  0  0  0  0
  -24.8414   14.7268   28.3968 C   0  0  0  0  0  0  0  0  0  0  0  0
  -24.9702   14.9024   27.3604 H   0  0  0  0  0  0  0  0  0  0  0  0
  -25.5459   15.4994   29.3170 C   0  0  0  0  0  0  0  0  0  0  0  0
  -26.2088   16.2601   28.9947 H   0  0  0  0  0  0  0  0  0  0  0  0
  -25.3672   15.2557   30.6711 C   0  0  0  0  0  0  0  0  0  0  0  0
  -26.0447   15.9986   31.5582 F   0  0  0  0  0  0  0  0  0  0  0  0
  -24.5127   14.2666   31.1362 C   0  0  0  0  0  0  0  0  0  0  0  0
  -24.4033   14.1006   32.1757 H   0  0  0  0  0  0  0  0  0  0  0  0
  -23.8103   13.4993   30.2099 C   0  0  0  0  0  0  0  0  0  0  0  0
  -23.1597   12.7341   30.5511 H   0  0  0  0  0  0  0  0  0  0  0  0
  -18.8994   14.1224   26.4742 C   0  0  0  0  0  0  0  0  0  0  0  0
  -19.2689   14.4259   25.4931 H   0  0  0  0  0  0  0  0  0  0  0  0
  -17.8101   14.2006   26.4960 H   0  0  0  0  0  0  0  0  0  0  0  0
  -19.3301   14.7378   27.2657 H   0  0  0  0  0  0  0  0  0  0  0  0
  1  2  2  0
  1  3  2  0
  1  4  1  0
  1 23  1  0
  4  5  1  0
  4  6  1  0
  6  7  1  0
  6  8  1  0
  6  9  1  0
  9 10  1  0
  9 11  1  0
  9 12  1  0
 12 13  1  0
 12 21  2  0
 13 14  1  0
 13 15  2  0
 15 16  1  0
 15 17  1  0
 17 18  1  0
 17 19  2  0
 19 20  1  0
 19 21  1  0
 21 22  1  0
 23 24  1  0
 23 25  1  0
 23 26  1  0
M  END
$$$$
