F217_36
     RDKit          3D

 28 29  0  0  0  0  0  0  0  0999 V2000
  -19.2455   12.2985   28.5143 O   0  0  0  0  0  0  0  0  0  0  0  0
  -20.2103   12.1956   27.7747 C   0  0  0  0  0  0  0  0  0  0  0  0
  -20.1353   11.4140   26.7160 N   0  0  0  0  0  0  0  0  0  0  0  0
  -19.2626   10.9334   26.5725 H   0  0  0  0  0  0  0  0  0  0  0  0
  -20.9113   11.3120   26.0858 H   0  0  0  0  0  0  0  0  0  0  0  0
  -21.5202   12.9087   27.9806 C   0  0  0  0  0  0  0  0  0  0  0  0
  -21.3448   13.7881   28.6102 H   0  0  0  0  0  0  0  0  0  0  0  0
  -21.8738   13.2667   27.0062 H   0  0  0  0  0  0  0  0  0  0  0  0
  -22.5484   11.9868   28.6225 C   0  0  0  0  0  0  0  0  0  0  0  0
  -22.1844   11.5914   29.5770 H   0  0  0  0  0  0  0  0  0  0  0  0
  -22.7567   11.1171   27.9871 H   0  0  0  0  0  0  0  0  0  0  0  0
  -23.8068   12.6694   28.8578 N   0  0  0  0  0  0  0  0  0  0  0  0
  -24.8018   12.9081   27.9381 C   0  0  0  0  0  0  0  0  0  0  0  0
  -24.7162   12.4895   26.5139 C   0  0  0  0  0  0  0  0  0  0  0  0
  -25.6581   12.6975   25.9976 H   0  0  0  0  0  0  0  0  0  0  0  0
  -24.5187   11.4170   26.4324 H   0  0  0  0  0  0  0  0  0  0  0  0
  -23.9221   13.0382   25.9985 H   0  0  0  0  0  0  0  0  0  0  0  0
  -25.8025   13.5309   28.4660 N   0  0  0  0  0  0  0  0  0  0  0  0
  -25.4696   13.7199   29.7890 C   0  0  0  0  0  0  0  0  0  0  0  0
  -24.2229   13.1877   30.0481 C   0  0  0  0  0  0  0  0  0  0  0  0
  -23.6242   13.2343   31.3156 C   0  0  0  0  0  0  0  0  0  0  0  0
  -22.6635   12.8217   31.4869 H   0  0  0  0  0  0  0  0  0  0  0  0
  -24.3340   13.8427   32.3394 C   0  0  0  0  0  0  0  0  0  0  0  0
  -23.9185   13.8992   33.3116 H   0  0  0  0  0  0  0  0  0  0  0  0
  -25.6135   14.3914   32.0951 C   0  0  0  0  0  0  0  0  0  0  0  0
  -26.1431   14.8538   32.8897 H   0  0  0  0  0  0  0  0  0  0  0  0
  -26.1808   14.3329   30.8293 C   0  0  0  0  0  0  0  0  0  0  0  0
  -27.1364   14.7418   30.6358 H   0  0  0  0  0  0  0  0  0  0  0  0
  1  2  2  0
  2  3  1  0
  2  6  1  0
  3  4  1  0
  3  5  1  0
  6  7  1  0
  6  8  1  0
  6  9  1  0
  9 10  1  0
  9 11  1  0
  9 12  1  0
 12 13  1  0
 12 20  1  0
 13 14  1  0
 13 18  2  0
 14 15  1  0
 14 16  1  0
 14 17  1  0
 18 19  1  0
 19 20  1  0
 19 27  2  0
 20 21  2  0
 21 22  1  0
 21 23  1  0
 23 24  1  0
 23 25  2  0
 25 26  1  0
 25 27  1  0
 27 28  1  0
M  END
$$$$
