F362_53
     RDKit          3D

 30 31  0  0  0  0  0  0  0  0999 V2000
  -24.3317   13.0312   31.6198 N   0  0  0  0  0  0  0  0  0  0  0  0
  -23.9805   14.0143   32.6628 C   0  0  0  0  0  0  0  0  0  0  0  0
  -23.6704   14.9693   32.2299 H   0  0  0  0  0  0  0  0  0  0  0  0
  -24.8721   14.2646   33.2515 H   0  0  0  0  0  0  0  0  0  0  0  0
  -22.9291   13.4524   33.6079 C   0  0  0  0  0  0  0  0  0  0  0  0
  -22.0229   13.1427   33.0805 H   0  0  0  0  0  0  0  0  0  0  0  0
  -23.3117   12.5755   34.1417 H   0  0  0  0  0  0  0  0  0  0  0  0
  -22.6500   14.2039   34.3537 H   0  0  0  0  0  0  0  0  0  0  0  0
  -25.0390   11.8488   32.1511 C   0  0  0  0  0  0  0  0  0  0  0  0
  -25.3487   12.0081   33.1896 H   0  0  0  0  0  0  0  0  0  0  0  0
  -25.9723   11.6836   31.5975 H   0  0  0  0  0  0  0  0  0  0  0  0
  -24.1729   10.6021   32.0362 C   0  0  0  0  0  0  0  0  0  0  0  0
  -23.2449   10.7024   32.6071 H   0  0  0  0  0  0  0  0  0  0  0  0
  -23.9020   10.4056   30.9942 H   0  0  0  0  0  0  0  0  0  0  0  0
  -24.7135    9.7303   32.4175 H   0  0  0  0  0  0  0  0  0  0  0  0
  -24.0238   13.1913   30.2221 C   0  0  0  0  0  0  0  0  0  0  0  0
  -24.9514   13.7977   29.2988 N   0  0  0  0  0  0  0  0  0  0  0  0
  -26.1861   14.3029   29.5138 N   0  0  0  0  0  0  0  0  0  0  0  0
  -26.5328   14.7071   28.3308 C   0  0  0  0  0  0  0  0  0  0  0  0
  -27.4734   15.1651   28.1452 H   0  0  0  0  0  0  0  0  0  0  0  0
  -25.6353   14.5122   27.3589 N   0  0  0  0  0  0  0  0  0  0  0  0
  -24.6381   13.9403   27.9697 C   0  0  0  0  0  0  0  0  0  0  0  0
  -23.4350   13.5183   27.4299 N   0  0  0  0  0  0  0  0  0  0  0  0
  -22.5713   12.9686   28.2198 C   0  0  0  0  0  0  0  0  0  0  0  0
  -21.2562   12.5022   27.6583 C   0  0  0  0  0  0  0  0  0  0  0  0
  -20.6277   12.0515   28.4297 H   0  0  0  0  0  0  0  0  0  0  0  0
  -20.7271   13.3549   27.2233 H   0  0  0  0  0  0  0  0  0  0  0  0
  -21.4415   11.7610   26.8749 H   0  0  0  0  0  0  0  0  0  0  0  0
  -22.8247   12.7770   29.6721 C   0  0  0  0  0  0  0  0  0  0  0  0
  -22.0922   12.3145   30.2721 H   0  0  0  0  0  0  0  0  0  0  0  0
  1  2  1  0
  1  9  1  0
  1 16  1  0
  2  3  1  0
  2  4  1  0
  2  5  1  0
  5  6  1  0
  5  7  1  0
  5  8  1  0
  9 10  1  0
  9 11  1  0
  9 12  1  0
 12 13  1  0
 12 14  1  0
 12 15  1  0
 16 17  1  0
 16 29  2  0
 17 18  1  0
 17 22  1  0
 18 19  2  0
 19 20  1  0
 19 21  1  0
 21 22  2  0
 22 23  1  0
 23 24  2  0
 24 25  1  0
 24 29  1  0
 25 26  1  0
 25 27  1  0
 25 28  1  0
 29 30  1  0
M  END
$$$$
