F393_50
     RDKit          3D

 24 24  0  0  0  0  0  0  0  0999 V2000
  -21.0832   11.3400   26.8200 O   0  0  0  0  0  0  0  0  0  0  0  0
  -20.7422   12.4820   27.1021 C   0  0  0  0  0  0  0  0  0  0  0  0
  -21.4747   13.3318   27.8720 O   0  0  0  0  0  0  0  0  0  0  0  0
  -22.6786   12.7701   28.4098 C   0  0  0  0  0  0  0  0  0  0  0  0
  -23.2839   12.3497   27.5996 H   0  0  0  0  0  0  0  0  0  0  0  0
  -22.4283   11.9845   29.1312 H   0  0  0  0  0  0  0  0  0  0  0  0
  -23.4479   13.8774   29.1031 C   0  0  0  0  0  0  0  0  0  0  0  0
  -23.6842   14.6827   28.3990 H   0  0  0  0  0  0  0  0  0  0  0  0
  -22.8462   14.3203   29.9039 H   0  0  0  0  0  0  0  0  0  0  0  0
  -24.3801   13.4970   29.5305 H   0  0  0  0  0  0  0  0  0  0  0  0
  -19.5641   13.0287   26.6631 N   0  0  0  0  0  0  0  0  0  0  0  0
  -18.6349   12.2587   25.8370 C   0  0  0  0  0  0  0  0  0  0  0  0
  -17.7630   12.0476   26.4670 H   0  0  0  0  0  0  0  0  0  0  0  0
  -19.0710   11.3031   25.5286 H   0  0  0  0  0  0  0  0  0  0  0  0
  -18.2079   13.0686   24.6129 C   0  0  0  0  0  0  0  0  0  0  0  0
  -19.0505   13.2272   23.9289 H   0  0  0  0  0  0  0  0  0  0  0  0
  -17.4248   12.5353   24.0642 H   0  0  0  0  0  0  0  0  0  0  0  0
  -17.6775   14.3437   25.0033 O   0  0  0  0  0  0  0  0  0  0  0  0
  -18.6634   15.1101   25.7117 C   0  0  0  0  0  0  0  0  0  0  0  0
  -18.2147   16.0747   25.9692 H   0  0  0  0  0  0  0  0  0  0  0  0
  -19.5126   15.3011   25.0440 H   0  0  0  0  0  0  0  0  0  0  0  0
  -19.1120   14.3849   26.9814 C   0  0  0  0  0  0  0  0  0  0  0  0
  -19.8861   14.9646   27.4916 H   0  0  0  0  0  0  0  0  0  0  0  0
  -18.2640   14.2740   27.6668 H   0  0  0  0  0  0  0  0  0  0  0  0
  1  2  2  0
  2  3  1  0
  2 11  1  0
  3  4  1  0
  4  5  1  0
  4  6  1  0
  4  7  1  0
  7  8  1  0
  7  9  1  0
  7 10  1  0
 11 12  1  0
 11 22  1  0
 12 13  1  0
 12 14  1  0
 12 15  1  0
 15 16  1  0
 15 17  1  0
 15 18  1  0
 18 19  1  0
 19 20  1  0
 19 21  1  0
 19 22  1  0
 22 23  1  0
 22 24  1  0
M  END
$$$$
