F367_77
     RDKit          3D

 31 32  0  0  0  0  0  0  0  0999 V2000
  -17.3441   15.4405   27.6226 O   0  0  0  0  0  0  0  0  0  0  0  0
  -18.3273   15.4306   26.8936 C   0  0  0  0  0  0  0  0  0  0  0  0
  -19.0528   16.5823   26.8246 N   0  0  0  0  0  0  0  0  0  0  0  0
  -19.8305   16.6663   26.1593 H   0  0  0  0  0  0  0  0  0  0  0  0
  -18.7451   17.7365   27.6449 C   0  0  0  0  0  0  0  0  0  0  0  0
  -18.2326   17.3926   28.5508 H   0  0  0  0  0  0  0  0  0  0  0  0
  -19.6845   18.2121   27.9487 H   0  0  0  0  0  0  0  0  0  0  0  0
  -17.8883   18.6720   26.8691 C   0  0  0  0  0  0  0  0  0  0  0  0
  -16.5388   18.6462   26.7615 C   0  0  0  0  0  0  0  0  0  0  0  0
  -15.8121   17.9943   27.1687 H   0  0  0  0  0  0  0  0  0  0  0  0
  -16.2105   19.6905   25.9684 N   0  0  0  0  0  0  0  0  0  0  0  0
  -14.8914   20.1080   25.5420 C   0  0  0  0  0  0  0  0  0  0  0  0
  -14.9590   21.1541   25.2237 H   0  0  0  0  0  0  0  0  0  0  0  0
  -14.2324   20.0650   26.4155 H   0  0  0  0  0  0  0  0  0  0  0  0
  -14.3520   19.2464   24.4146 C   0  0  0  0  0  0  0  0  0  0  0  0
  -15.0118   19.2834   23.5410 H   0  0  0  0  0  0  0  0  0  0  0  0
  -14.2665   18.1993   24.7230 H   0  0  0  0  0  0  0  0  0  0  0  0
  -13.3604   19.5951   24.1107 H   0  0  0  0  0  0  0  0  0  0  0  0
  -17.3087   20.3785   25.5662 N   0  0  0  0  0  0  0  0  0  0  0  0
  -18.3164   19.7588   26.1167 C   0  0  0  0  0  0  0  0  0  0  0  0
  -19.3244   20.0622   25.9859 H   0  0  0  0  0  0  0  0  0  0  0  0
  -18.7101   14.2623   26.0776 C   0  0  0  0  0  0  0  0  0  0  0  0
  -18.9224   14.4570   24.7069 C   0  0  0  0  0  0  0  0  0  0  0  0
  -18.8087   15.4272   24.2901 H   0  0  0  0  0  0  0  0  0  0  0  0
  -19.2712   13.4623   23.8884 N   0  0  0  0  0  0  0  0  0  0  0  0
  -19.4220   12.2310   24.3722 C   0  0  0  0  0  0  0  0  0  0  0  0
  -19.6997   11.4614   23.6964 H   0  0  0  0  0  0  0  0  0  0  0  0
  -19.2221   11.9476   25.7206 C   0  0  0  0  0  0  0  0  0  0  0  0
  -19.3440   10.9577   26.0752 H   0  0  0  0  0  0  0  0  0  0  0  0
  -18.8603   12.9678   26.5909 C   0  0  0  0  0  0  0  0  0  0  0  0
  -18.6963   12.7581   27.6157 H   0  0  0  0  0  0  0  0  0  0  0  0
  1  2  2  0
  2  3  1  0
  2 22  1  0
  3  4  1  0
  3  5  1  0
  5  6  1  0
  5  7  1  0
  5  8  1  0
  8  9  2  0
  8 20  1  0
  9 10  1  0
  9 11  1  0
 11 12  1  0
 11 19  1  0
 12 13  1  0
 12 14  1  0
 12 15  1  0
 15 16  1  0
 15 17  1  0
 15 18  1  0
 19 20  2  0
 20 21  1  0
 22 23  1  0
 22 30  2  0
 23 24  1  0
 23 25  2  0
 25 26  1  0
 26 27  1  0
 26 28  2  0
 28 29  1  0
 28 30  1  0
 30 31  1  0
M  END
$$$$
