F274_82
     RDKit          3D

 26 27  0  0  0  0  0  0  0  0999 V2000
  -23.7768   15.0282   29.7098 O   0  0  0  0  0  0  0  0  0  0  0  0
  -23.6905   13.9324   30.2784 C   0  0  0  0  0  0  0  0  0  0  0  0
  -23.5400   12.7665   29.5155 N   0  0  0  0  0  0  0  0  0  0  0  0
  -23.4546   12.8309   28.0588 C   0  0  0  0  0  0  0  0  0  0  0  0
  -24.0363   12.0018   27.6385 H   0  0  0  0  0  0  0  0  0  0  0  0
  -23.9068   13.7627   27.7021 H   0  0  0  0  0  0  0  0  0  0  0  0
  -22.0411   12.7356   27.6317 C   0  0  0  0  0  0  0  0  0  0  0  0
  -21.7712   12.9643   26.3445 O   0  0  0  0  0  0  0  0  0  0  0  0
  -20.4583   12.8281   26.1170 N   0  0  0  0  0  0  0  0  0  0  0  0
  -19.9077   12.5190   27.2399 C   0  0  0  0  0  0  0  0  0  0  0  0
  -18.4505   12.2993   27.3439 C   0  0  0  0  0  0  0  0  0  0  0  0
  -18.1871   11.8544   28.3092 H   0  0  0  0  0  0  0  0  0  0  0  0
  -17.9129   13.2492   27.2521 H   0  0  0  0  0  0  0  0  0  0  0  0
  -18.0985   11.6249   26.5565 H   0  0  0  0  0  0  0  0  0  0  0  0
  -20.8761   12.4449   28.2307 C   0  0  0  0  0  0  0  0  0  0  0  0
  -20.7332   12.2058   29.2525 H   0  0  0  0  0  0  0  0  0  0  0  0
  -23.4567   11.5075   30.0748 N   0  0  0  0  0  0  0  0  0  0  0  0
  -23.5142   11.3627   31.3620 C   0  0  0  0  0  0  0  0  0  0  0  0
  -23.4240    9.9824   31.9487 C   0  0  0  0  0  0  0  0  0  0  0  0
  -22.5020    9.5026   31.6050 H   0  0  0  0  0  0  0  0  0  0  0  0
  -24.2803    9.3910   31.6098 H   0  0  0  0  0  0  0  0  0  0  0  0
  -23.4221   10.0092   33.0411 H   0  0  0  0  0  0  0  0  0  0  0  0
  -23.6606   12.4915   32.2196 C   0  0  0  0  0  0  0  0  0  0  0  0
  -23.7009   12.3409   33.2676 H   0  0  0  0  0  0  0  0  0  0  0  0
  -23.7450   13.7470   31.6928 C   0  0  0  0  0  0  0  0  0  0  0  0
  -23.8541   14.6050   32.3021 H   0  0  0  0  0  0  0  0  0  0  0  0
  1  2  2  0
  2  3  1  0
  2 25  1  0
  3  4  1  0
  3 17  1  0
  4  5  1  0
  4  6  1  0
  4  7  1  0
  7  8  1  0
  7 15  2  0
  8  9  1  0
  9 10  2  0
 10 11  1  0
 10 15  1  0
 11 12  1  0
 11 13  1  0
 11 14  1  0
 15 16  1  0
 17 18  2  0
 18 19  1  0
 18 23  1  0
 19 20  1  0
 19 21  1  0
 19 22  1  0
 23 24  1  0
 23 25  2  0
 25 26  1  0
M  END
$$$$
