F96_91
     RDKit          3D

 19 19  0  0  0  0  0  0  0  0999 V2000
  -18.4723   16.3712   26.7117 O   0  0  0  0  0  0  0  0  0  0  0  0
  -17.4167   16.0697   26.1735 C   0  0  0  0  0  0  0  0  0  0  0  0
  -17.3071   15.0197   25.3719 N   0  0  0  0  0  0  0  0  0  0  0  0
  -16.4212   14.7929   24.9539 H   0  0  0  0  0  0  0  0  0  0  0  0
  -18.4331   14.1612   25.0711 C   0  0  0  0  0  0  0  0  0  0  0  0
  -19.2857   14.7906   24.7936 H   0  0  0  0  0  0  0  0  0  0  0  0
  -18.1800   13.5367   24.2076 H   0  0  0  0  0  0  0  0  0  0  0  0
  -18.7416   13.3330   26.2663 C   0  0  0  0  0  0  0  0  0  0  0  0
  -19.5784   13.6446   27.2840 C   0  0  0  0  0  0  0  0  0  0  0  0
  -20.1782   14.4987   27.4676 H   0  0  0  0  0  0  0  0  0  0  0  0
  -19.5365   12.5919   28.1285 N   0  0  0  0  0  0  0  0  0  0  0  0
  -20.0716   12.5121   29.0134 H   0  0  0  0  0  0  0  0  0  0  0  0
  -18.6944   11.6212   27.6878 N   0  0  0  0  0  0  0  0  0  0  0  0
  -18.2203   12.0772   26.5611 C   0  0  0  0  0  0  0  0  0  0  0  0
  -17.5237   11.5421   25.9654 H   0  0  0  0  0  0  0  0  0  0  0  0
  -16.1509   16.8481   26.4020 C   0  0  0  0  0  0  0  0  0  0  0  0
  -15.4636   16.7424   25.5580 H   0  0  0  0  0  0  0  0  0  0  0  0
  -15.6644   16.4815   27.3090 H   0  0  0  0  0  0  0  0  0  0  0  0
  -16.3933   17.9079   26.5201 H   0  0  0  0  0  0  0  0  0  0  0  0
  1  2  2  0
  2  3  1  0
  2 16  1  0
  3  4  1  0
  3  5  1  0
  5  6  1  0
  5  7  1  0
  5  8  1  0
  8  9  2  0
  8 14  1  0
  9 10  1  0
  9 11  1  0
 11 12  1  0
 11 13  1  0
 13 14  2  0
 14 15  1  0
 16 17  1  0
 16 18  1  0
 16 19  1  0
M  END
$$$$
