F96_83
     RDKit          3D

 19 19  0  0  0  0  0  0  0  0999 V2000
  -18.9988   16.7226   27.5128 O   0  0  0  0  0  0  0  0  0  0  0  0
  -17.9363   16.6965   26.9084 C   0  0  0  0  0  0  0  0  0  0  0  0
  -17.7840   16.0243   25.7762 N   0  0  0  0  0  0  0  0  0  0  0  0
  -16.8931   16.0142   25.3100 H   0  0  0  0  0  0  0  0  0  0  0  0
  -18.8688   15.2808   25.1716 C   0  0  0  0  0  0  0  0  0  0  0  0
  -19.8071   15.8087   25.3739 H   0  0  0  0  0  0  0  0  0  0  0  0
  -18.7208   15.2601   24.0865 H   0  0  0  0  0  0  0  0  0  0  0  0
  -18.8895   13.9080   25.7413 C   0  0  0  0  0  0  0  0  0  0  0  0
  -18.3692   12.7857   25.1909 C   0  0  0  0  0  0  0  0  0  0  0  0
  -17.8548   12.6203   24.2793 H   0  0  0  0  0  0  0  0  0  0  0  0
  -18.6271   11.7931   26.0692 N   0  0  0  0  0  0  0  0  0  0  0  0
  -18.3550   10.7998   25.9474 H   0  0  0  0  0  0  0  0  0  0  0  0
  -19.3021   12.2428   27.1590 N   0  0  0  0  0  0  0  0  0  0  0  0
  -19.4544   13.5220   26.9527 C   0  0  0  0  0  0  0  0  0  0  0  0
  -19.9529   14.1646   27.6345 H   0  0  0  0  0  0  0  0  0  0  0  0
  -16.7087   17.3998   27.4173 C   0  0  0  0  0  0  0  0  0  0  0  0
  -16.0278   17.6492   26.5987 H   0  0  0  0  0  0  0  0  0  0  0  0
  -16.1927   16.7496   28.1277 H   0  0  0  0  0  0  0  0  0  0  0  0
  -17.0030   18.3268   27.9172 H   0  0  0  0  0  0  0  0  0  0  0  0
  1  2  2  0
  2  3  1  0
  2 16  1  0
  3  4  1  0
  3  5  1  0
  5  6  1  0
  5  7  1  0
  5  8  1  0
  8  9  2  0
  8 14  1  0
  9 10  1  0
  9 11  1  0
 11 12  1  0
 11 13  1  0
 13 14  2  0
 14 15  1  0
 16 17  1  0
 16 18  1  0
 16 19  1  0
M  END
$$$$
