F389_91
     RDKit          3D

 18 18  0  0  0  0  0  0  0  0999 V2000
  -22.3837   11.2742   27.3131 O   0  0  0  0  0  0  0  0  0  0  0  0
  -22.3922   12.4939   27.3973 C   0  0  0  0  0  0  0  0  0  0  0  0
  -21.2893   13.2904   27.2704 O   0  0  0  0  0  0  0  0  0  0  0  0
  -20.0508   12.6220   26.9843 C   0  0  0  0  0  0  0  0  0  0  0  0
  -20.2214   11.9961   26.1019 H   0  0  0  0  0  0  0  0  0  0  0  0
  -19.7616   11.9538   27.8031 H   0  0  0  0  0  0  0  0  0  0  0  0
  -18.9662   13.6392   26.6872 C   0  0  0  0  0  0  0  0  0  0  0  0
  -18.7778   14.2775   27.5563 H   0  0  0  0  0  0  0  0  0  0  0  0
  -19.2711   14.2994   25.8687 H   0  0  0  0  0  0  0  0  0  0  0  0
  -18.0328   13.1413   26.4099 H   0  0  0  0  0  0  0  0  0  0  0  0
  -23.6025   13.2541   27.6512 C   0  0  0  0  0  0  0  0  0  0  0  0
  -24.8158   13.1080   27.0456 C   0  0  0  0  0  0  0  0  0  0  0  0
  -25.1497   12.4447   26.2898 H   0  0  0  0  0  0  0  0  0  0  0  0
  -25.6196   14.0269   27.6057 N   0  0  0  0  0  0  0  0  0  0  0  0
  -26.6185   14.1759   27.3615 H   0  0  0  0  0  0  0  0  0  0  0  0
  -24.9740   14.7630   28.5510 N   0  0  0  0  0  0  0  0  0  0  0  0
  -23.7591   14.2914   28.5718 C   0  0  0  0  0  0  0  0  0  0  0  0
  -22.9995   14.6609   29.2141 H   0  0  0  0  0  0  0  0  0  0  0  0
  1  2  2  0
  2  3  1  0
  2 11  1  0
  3  4  1  0
  4  5  1  0
  4  6  1  0
  4  7  1  0
  7  8  1  0
  7  9  1  0
  7 10  1  0
 11 12  2  0
 11 17  1  0
 12 13  1  0
 12 14  1  0
 14 15  1  0
 14 16  1  0
 16 17  2  0
 17 18  1  0
M  END
$$$$
