F558_52
     RDKit          3D

 32 33  0  0  0  0  0  0  0  0999 V2000
  -19.8347   11.2896   25.9408 O   0  0  0  0  0  0  0  0  0  0  0  0
  -20.1626   12.4640   25.8584 C   0  0  0  0  0  0  0  0  0  0  0  0
  -19.7058   13.3453   24.9301 O   0  0  0  0  0  0  0  0  0  0  0  0
  -18.7719   12.7923   23.9998 C   0  0  0  0  0  0  0  0  0  0  0  0
  -19.2287   11.9698   23.4417 H   0  0  0  0  0  0  0  0  0  0  0  0
  -17.8701   12.4543   24.5211 H   0  0  0  0  0  0  0  0  0  0  0  0
  -18.4913   13.5787   23.2944 H   0  0  0  0  0  0  0  0  0  0  0  0
  -21.0204   13.1040   26.6994 N   0  0  0  0  0  0  0  0  0  0  0  0
  -21.1095   14.1062   26.5079 H   0  0  0  0  0  0  0  0  0  0  0  0
  -21.7706   12.5857   27.7772 C   0  0  0  0  0  0  0  0  0  0  0  0
  -22.0768   11.2297   27.9138 C   0  0  0  0  0  0  0  0  0  0  0  0
  -21.7547   10.5276   27.1913 H   0  0  0  0  0  0  0  0  0  0  0  0
  -22.8215   10.8041   29.0085 C   0  0  0  0  0  0  0  0  0  0  0  0
  -23.0547    9.7748   29.1105 H   0  0  0  0  0  0  0  0  0  0  0  0
  -23.2664   11.7183   29.9656 C   0  0  0  0  0  0  0  0  0  0  0  0
  -24.0939   11.2509   31.1420 C   0  0  0  0  0  0  0  0  0  0  0  0
  -24.0069   10.1603   31.2364 H   0  0  0  0  0  0  0  0  0  0  0  0
  -25.1593   11.4261   30.9422 H   0  0  0  0  0  0  0  0  0  0  0  0
  -23.7118   11.9105   32.4429 C   0  0  0  0  0  0  0  0  0  0  0  0
  -22.7145   11.3833   33.2548 C   0  0  0  0  0  0  0  0  0  0  0  0
  -22.1878   10.5121   32.9655 H   0  0  0  0  0  0  0  0  0  0  0  0
  -22.4035   12.0043   34.4603 C   0  0  0  0  0  0  0  0  0  0  0  0
  -21.6442   11.6074   35.0864 H   0  0  0  0  0  0  0  0  0  0  0  0
  -23.0368   13.1013   34.8695 N   0  0  0  0  0  0  0  0  0  0  0  0
  -23.9980   13.6230   34.1096 C   0  0  0  0  0  0  0  0  0  0  0  0
  -24.4903   14.4956   34.4595 H   0  0  0  0  0  0  0  0  0  0  0  0
  -24.3608   13.0537   32.8932 C   0  0  0  0  0  0  0  0  0  0  0  0
  -25.1348   13.4926   32.3177 H   0  0  0  0  0  0  0  0  0  0  0  0
  -22.9643   13.0735   29.8110 C   0  0  0  0  0  0  0  0  0  0  0  0
  -23.2995   13.7785   30.5276 H   0  0  0  0  0  0  0  0  0  0  0  0
  -22.2202   13.5098   28.7200 C   0  0  0  0  0  0  0  0  0  0  0  0
  -21.9903   14.5379   28.6103 H   0  0  0  0  0  0  0  0  0  0  0  0
  1  2  2  0
  2  3  1  0
  2  8  1  0
  3  4  1  0
  4  5  1  0
  4  6  1  0
  4  7  1  0
  8  9  1  0
  8 10  1  0
 10 11  1  0
 10 31  2  0
 11 12  1  0
 11 13  2  0
 13 14  1  0
 13 15  1  0
 15 16  1  0
 15 29  2  0
 16 17  1  0
 16 18  1  0
 16 19  1  0
 19 20  1  0
 19 27  2  0
 20 21  1  0
 20 22  2  0
 22 23  1  0
 22 24  1  0
 24 25  2  0
 25 26  1  0
 25 27  1  0
 27 28  1  0
 29 30  1  0
 29 31  1  0
 31 32  1  0
M  END
$$$$
