F618_9
     RDKit          3D

 26 26  0  0  0  0  0  0  0  0999 V2000
  -23.1246   13.7618   32.0457 F   0  0  0  0  0  0  0  0  0  0  0  0
  -23.0422   12.5105   31.5674 C   0  0  0  0  0  0  0  0  0  0  0  0
  -23.6233   12.1383   30.3413 C   0  0  0  0  0  0  0  0  0  0  0  0
  -24.3008   13.0612   29.5285 N   0  0  0  0  0  0  0  0  0  0  0  0
  -23.7634   13.3038   28.1688 C   0  0  0  0  0  0  0  0  0  0  0  0
  -24.6698   12.6761   27.0937 C   0  0  0  0  0  0  0  0  0  0  0  0
  -24.5974   13.2385   26.1566 H   0  0  0  0  0  0  0  0  0  0  0  0
  -25.7204   12.6804   27.4002 H   0  0  0  0  0  0  0  0  0  0  0  0
  -24.3057   11.3245   26.8207 O   0  0  0  0  0  0  0  0  0  0  0  0
  -25.0232   10.9816   26.2580 H   0  0  0  0  0  0  0  0  0  0  0  0
  -22.3131   12.8279   28.0199 C   0  0  0  0  0  0  0  0  0  0  0  0
  -21.8944   13.1896   27.0739 H   0  0  0  0  0  0  0  0  0  0  0  0
  -22.2261   11.7375   28.0088 H   0  0  0  0  0  0  0  0  0  0  0  0
  -21.6880   13.2145   28.8308 H   0  0  0  0  0  0  0  0  0  0  0  0
  -25.4927   13.7446   30.0096 C   0  0  0  0  0  0  0  0  0  0  0  0
  -26.3561   13.0712   29.9994 H   0  0  0  0  0  0  0  0  0  0  0  0
  -25.7483   14.6165   29.4004 H   0  0  0  0  0  0  0  0  0  0  0  0
  -25.3439   14.1368   31.0228 H   0  0  0  0  0  0  0  0  0  0  0  0
  -23.5438   10.8784   29.8863 N   0  0  0  0  0  0  0  0  0  0  0  0
  -22.9089    9.9655   30.6321 C   0  0  0  0  0  0  0  0  0  0  0  0
  -22.8600    8.9744   30.2600 H   0  0  0  0  0  0  0  0  0  0  0  0
  -22.3220   10.2759   31.8603 C   0  0  0  0  0  0  0  0  0  0  0  0
  -21.8301    9.5217   32.4171 H   0  0  0  0  0  0  0  0  0  0  0  0
  -22.3842   11.5789   32.3476 C   0  0  0  0  0  0  0  0  0  0  0  0
  -21.9483   11.8523   33.2733 H   0  0  0  0  0  0  0  0  0  0  0  0
  -23.7177   14.3849   27.9801 H   0  0  0  0  0  0  0  0  0  0  0  0
  1  2  1  0
  2  3  1  0
  2 24  2  0
  3  4  1  0
  3 19  2  0
  4  5  1  0
  4 15  1  0
  5  6  1  0
  5 11  1  0
  5 26  1  0
  6  7  1  0
  6  8  1  0
  6  9  1  0
  9 10  1  0
 11 12  1  0
 11 13  1  0
 11 14  1  0
 15 16  1  0
 15 17  1  0
 15 18  1  0
 19 20  1  0
 20 21  1  0
 20 22  2  0
 22 23  1  0
 22 24  1  0
 24 25  1  0
M  END
$$$$
