F217_50
     RDKit          3D

 28 29  0  0  0  0  0  0  0  0999 V2000
  -21.2568   12.4494   26.5199 O   0  0  0  0  0  0  0  0  0  0  0  0
  -21.8385   11.9056   27.4442 C   0  0  0  0  0  0  0  0  0  0  0  0
  -22.1416   10.6258   27.3562 N   0  0  0  0  0  0  0  0  0  0  0  0
  -21.8697   10.1563   26.5084 H   0  0  0  0  0  0  0  0  0  0  0  0
  -22.6242   10.1510   28.0988 H   0  0  0  0  0  0  0  0  0  0  0  0
  -22.2485   12.5979   28.7167 C   0  0  0  0  0  0  0  0  0  0  0  0
  -21.6321   12.2150   29.5376 H   0  0  0  0  0  0  0  0  0  0  0  0
  -22.0300   13.6675   28.6122 H   0  0  0  0  0  0  0  0  0  0  0  0
  -23.7266   12.3747   29.0075 C   0  0  0  0  0  0  0  0  0  0  0  0
  -23.8980   11.3886   29.4526 H   0  0  0  0  0  0  0  0  0  0  0  0
  -24.3237   12.4067   28.0878 H   0  0  0  0  0  0  0  0  0  0  0  0
  -24.2535   13.3831   29.9077 N   0  0  0  0  0  0  0  0  0  0  0  0
  -24.3024   13.3199   31.2812 C   0  0  0  0  0  0  0  0  0  0  0  0
  -23.8093   12.1560   32.0642 C   0  0  0  0  0  0  0  0  0  0  0  0
  -23.8603   12.3679   33.1363 H   0  0  0  0  0  0  0  0  0  0  0  0
  -22.7686   11.9300   31.8160 H   0  0  0  0  0  0  0  0  0  0  0  0
  -24.4229   11.2717   31.8669 H   0  0  0  0  0  0  0  0  0  0  0  0
  -24.8221   14.3865   31.7914 N   0  0  0  0  0  0  0  0  0  0  0  0
  -25.1359   15.1974   30.7234 C   0  0  0  0  0  0  0  0  0  0  0  0
  -24.7876   14.5818   29.5383 C   0  0  0  0  0  0  0  0  0  0  0  0
  -24.9915   15.1753   28.2840 C   0  0  0  0  0  0  0  0  0  0  0  0
  -24.7188   14.6790   27.3885 H   0  0  0  0  0  0  0  0  0  0  0  0
  -25.5660   16.4367   28.2559 C   0  0  0  0  0  0  0  0  0  0  0  0
  -25.7372   16.9206   27.3299 H   0  0  0  0  0  0  0  0  0  0  0  0
  -25.9274   17.0852   29.4588 C   0  0  0  0  0  0  0  0  0  0  0  0
  -26.3664   18.0503   29.4194 H   0  0  0  0  0  0  0  0  0  0  0  0
  -25.7158   16.4726   30.6865 C   0  0  0  0  0  0  0  0  0  0  0  0
  -25.9842   16.9483   31.5917 H   0  0  0  0  0  0  0  0  0  0  0  0
  1  2  2  0
  2  3  1  0
  2  6  1  0
  3  4  1  0
  3  5  1  0
  6  7  1  0
  6  8  1  0
  6  9  1  0
  9 10  1  0
  9 11  1  0
  9 12  1  0
 12 13  1  0
 12 20  1  0
 13 14  1  0
 13 18  2  0
 14 15  1  0
 14 16  1  0
 14 17  1  0
 18 19  1  0
 19 20  1  0
 19 27  2  0
 20 21  2  0
 21 22  1  0
 21 23  1  0
 23 24  1  0
 23 25  2  0
 25 26  1  0
 25 27  1  0
 27 28  1  0
M  END
$$$$
