F535_88
     RDKit          3D

 23 24  0  0  0  0  0  0  0  0999 V2000
  -18.5158   12.9973   24.5422 N   0  0  0  0  0  0  0  0  0  0  0  0
  -17.9463   12.1395   24.6031 H   0  0  0  0  0  0  0  0  0  0  0  0
  -19.2933   12.7381   23.9186 H   0  0  0  0  0  0  0  0  0  0  0  0
  -19.0842   13.2717   25.9022 C   0  0  0  0  0  0  0  0  0  0  0  0
  -18.2364   13.3570   26.5882 H   0  0  0  0  0  0  0  0  0  0  0  0
  -19.6104   14.2301   25.8373 H   0  0  0  0  0  0  0  0  0  0  0  0
  -20.0035   12.1894   26.3211 C   0  0  0  0  0  0  0  0  0  0  0  0
  -20.9960   12.3109   27.2124 N   0  0  0  0  0  0  0  0  0  0  0  0
  -21.5810   11.0947   27.3057 C   0  0  0  0  0  0  0  0  0  0  0  0
  -20.9646   10.2676   26.4928 N   0  0  0  0  0  0  0  0  0  0  0  0
  -19.9774   10.9657   25.8761 N   0  0  0  0  0  0  0  0  0  0  0  0
  -22.6819   10.9274   28.1982 C   0  0  0  0  0  0  0  0  0  0  0  0
  -23.1398    9.9747   28.2737 H   0  0  0  0  0  0  0  0  0  0  0  0
  -23.1252   11.9872   28.9363 C   0  0  0  0  0  0  0  0  0  0  0  0
  -23.9421   11.8784   29.6047 H   0  0  0  0  0  0  0  0  0  0  0  0
  -22.4835   13.2589   28.8087 C   0  0  0  0  0  0  0  0  0  0  0  0
  -22.8424   14.0729   29.3889 H   0  0  0  0  0  0  0  0  0  0  0  0
  -21.4275   13.4237   27.9556 C   0  0  0  0  0  0  0  0  0  0  0  0
  -20.8979   14.3269   27.8007 H   0  0  0  0  0  0  0  0  0  0  0  0
  -17.7232   14.1007   23.9508 C   0  0  0  0  0  0  0  0  0  0  0  0
  -16.8783   14.3097   24.6103 H   0  0  0  0  0  0  0  0  0  0  0  0
  -18.3726   14.9730   23.8477 H   0  0  0  0  0  0  0  0  0  0  0  0
  -17.3731   13.7658   22.9716 H   0  0  0  0  0  0  0  0  0  0  0  0
  1  2  1  0
  1  3  1  0
  1  4  1  0
  1 20  1  0
  4  5  1  0
  4  6  1  0
  4  7  1  0
  7  8  1  0
  7 11  2  0
  8  9  1  0
  8 18  1  0
  9 10  2  0
  9 12  1  0
 10 11  1  0
 12 13  1  0
 12 14  2  0
 14 15  1  0
 14 16  1  0
 16 17  1  0
 16 18  2  0
 18 19  1  0
 20 21  1  0
 20 22  1  0
 20 23  1  0
M  END
$$$$
