F309_24
     RDKit          3D

 14 14  0  0  0  0  0  0  0  0999 V2000
  -25.4789   13.1000   25.5596 O   0  0  0  0  0  0  0  0  0  0  0  0
  -24.7311   12.7724   26.5223 C   0  0  0  0  0  0  0  0  0  0  0  0
  -23.9180   11.8109   26.3851 O   0  0  0  0  0  0  0  0  0  0  0  0
  -24.8039   13.5001   27.7829 C   0  0  0  0  0  0  0  0  0  0  0  0
  -24.0186   13.3127   28.9083 C   0  0  0  0  0  0  0  0  0  0  0  0
  -22.9209   12.2962   29.0287 C   0  0  0  0  0  0  0  0  0  0  0  0
  -22.4485   12.3387   30.0155 H   0  0  0  0  0  0  0  0  0  0  0  0
  -22.1406   12.4795   28.2833 H   0  0  0  0  0  0  0  0  0  0  0  0
  -23.3168   11.2834   28.8991 H   0  0  0  0  0  0  0  0  0  0  0  0
  -24.3459   14.1838   29.9599 C   0  0  0  0  0  0  0  0  0  0  0  0
  -23.8503   14.1860   30.8958 H   0  0  0  0  0  0  0  0  0  0  0  0
  -25.3703   15.0318   29.6542 C   0  0  0  0  0  0  0  0  0  0  0  0
  -25.7984   15.7760   30.2744 H   0  0  0  0  0  0  0  0  0  0  0  0
  -25.9574   14.7754   28.0568 S   0  0  0  0  0  0  0  0  0  0  0  0
  1  2  1  0
  2  3  2  0
  2  4  1  0
  4  5  2  0
  4 14  1  0
  5  6  1  0
  5 10  1  0
  6  7  1  0
  6  8  1  0
  6  9  1  0
 10 11  1  0
 10 12  2  0
 12 13  1  0
 12 14  1  0
M  END
$$$$
