F616_13
     RDKit          3D

 26 26  0  0  0  0  0  0  0  0999 V2000
  -18.6963   12.7784   26.0200 S   0  0  0  0  0  0  0  0  0  0  0  0
  -18.1985   11.4344   26.2171 O   0  0  0  0  0  0  0  0  0  0  0  0
  -18.1465   13.9059   26.7423 O   0  0  0  0  0  0  0  0  0  0  0  0
  -20.3591   12.7940   26.2895 N   0  0  0  0  0  0  0  0  0  0  0  0
  -20.9026   12.2094   25.6496 H   0  0  0  0  0  0  0  0  0  0  0  0
  -20.8743   12.9278   27.6654 C   0  0  0  0  0  0  0  0  0  0  0  0
  -20.2960   12.2548   28.3080 H   0  0  0  0  0  0  0  0  0  0  0  0
  -20.7455   13.9510   28.0350 H   0  0  0  0  0  0  0  0  0  0  0  0
  -22.3497   12.5244   27.7217 C   0  0  0  0  0  0  0  0  0  0  0  0
  -22.9556   13.1922   27.0954 H   0  0  0  0  0  0  0  0  0  0  0  0
  -22.4636   11.5228   27.2878 H   0  0  0  0  0  0  0  0  0  0  0  0
  -22.9056   12.5069   29.1288 C   0  0  0  0  0  0  0  0  0  0  0  0
  -23.3855   13.6876   29.7079 C   0  0  0  0  0  0  0  0  0  0  0  0
  -23.3489   14.5986   29.1694 H   0  0  0  0  0  0  0  0  0  0  0  0
  -23.9137   13.6722   30.9966 C   0  0  0  0  0  0  0  0  0  0  0  0
  -24.2795   14.5591   31.4455 H   0  0  0  0  0  0  0  0  0  0  0  0
  -23.9560   12.4701   31.6881 C   0  0  0  0  0  0  0  0  0  0  0  0
  -24.4642   12.4537   32.9287 F   0  0  0  0  0  0  0  0  0  0  0  0
  -23.4922   11.2848   31.1361 C   0  0  0  0  0  0  0  0  0  0  0  0
  -23.5446   10.3825   31.6868 H   0  0  0  0  0  0  0  0  0  0  0  0
  -22.9637   11.3085   29.8476 C   0  0  0  0  0  0  0  0  0  0  0  0
  -22.6130   10.4081   29.4099 H   0  0  0  0  0  0  0  0  0  0  0  0
  -18.6109   13.1564   24.2829 C   0  0  0  0  0  0  0  0  0  0  0  0
  -19.0799   12.3511   23.7148 H   0  0  0  0  0  0  0  0  0  0  0  0
  -17.5567   13.2336   24.0077 H   0  0  0  0  0  0  0  0  0  0  0  0
  -19.1108   14.1095   24.1024 H   0  0  0  0  0  0  0  0  0  0  0  0
  1  2  2  0
  1  3  2  0
  1  4  1  0
  1 23  1  0
  4  5  1  0
  4  6  1  0
  6  7  1  0
  6  8  1  0
  6  9  1  0
  9 10  1  0
  9 11  1  0
  9 12  1  0
 12 13  1  0
 12 21  2  0
 13 14  1  0
 13 15  2  0
 15 16  1  0
 15 17  1  0
 17 18  1  0
 17 19  2  0
 19 20  1  0
 19 21  1  0
 21 22  1  0
 23 24  1  0
 23 25  1  0
 23 26  1  0
M  END
$$$$
