F710_80
     RDKit          3D

 30 31  0  0  0  0  0  0  0  0999 V2000
  -25.3400   12.7515   29.7346 F   0  0  0  0  0  0  0  0  0  0  0  0
  -24.1594   12.7281   29.0995 C   0  0  0  0  0  0  0  0  0  0  0  0
  -24.1172   13.0517   27.7486 C   0  0  0  0  0  0  0  0  0  0  0  0
  -25.0064   13.3080   27.2343 H   0  0  0  0  0  0  0  0  0  0  0  0
  -22.8921   13.0261   27.0898 C   0  0  0  0  0  0  0  0  0  0  0  0
  -22.8352   13.2492   26.0575 H   0  0  0  0  0  0  0  0  0  0  0  0
  -21.7280   12.6828   27.7911 C   0  0  0  0  0  0  0  0  0  0  0  0
  -20.5047   12.6555   27.1339 N   0  0  0  0  0  0  0  0  0  0  0  0
  -19.9856   11.4356   26.5006 C   0  0  0  0  0  0  0  0  0  0  0  0
  -19.1032   11.0948   27.0555 H   0  0  0  0  0  0  0  0  0  0  0  0
  -20.7156   10.6186   26.5016 H   0  0  0  0  0  0  0  0  0  0  0  0
  -19.6104   11.7316   25.0401 C   0  0  0  0  0  0  0  0  0  0  0  0
  -20.5146   11.9593   24.4626 H   0  0  0  0  0  0  0  0  0  0  0  0
  -19.1546   10.8436   24.5899 H   0  0  0  0  0  0  0  0  0  0  0  0
  -18.7335   12.9038   24.9217 N   0  0  0  0  0  0  0  0  0  0  0  0
  -17.5447   12.7762   24.2566 C   0  0  0  0  0  0  0  0  0  0  0  0
  -17.0746   11.7088   23.9009 O   0  0  0  0  0  0  0  0  0  0  0  0
  -16.8940   13.9100   23.9846 N   0  0  0  0  0  0  0  0  0  0  0  0
  -16.0266   13.7833   23.4523 H   0  0  0  0  0  0  0  0  0  0  0  0
  -17.4766   14.7266   23.7877 H   0  0  0  0  0  0  0  0  0  0  0  0
  -19.2570   14.1144   25.5797 C   0  0  0  0  0  0  0  0  0  0  0  0
  -18.5331   14.9317   25.5616 H   0  0  0  0  0  0  0  0  0  0  0  0
  -20.1411   14.4283   25.0134 H   0  0  0  0  0  0  0  0  0  0  0  0
  -19.6313   13.8332   27.0446 C   0  0  0  0  0  0  0  0  0  0  0  0
  -20.0697   14.7309   27.4934 H   0  0  0  0  0  0  0  0  0  0  0  0
  -18.7179   13.6205   27.6148 H   0  0  0  0  0  0  0  0  0  0  0  0
  -21.7931   12.3548   29.1554 C   0  0  0  0  0  0  0  0  0  0  0  0
  -20.9189   12.1019   29.6923 H   0  0  0  0  0  0  0  0  0  0  0  0
  -23.0190   12.3798   29.8132 C   0  0  0  0  0  0  0  0  0  0  0  0
  -23.0906   12.1405   30.8419 H   0  0  0  0  0  0  0  0  0  0  0  0
  1  2  1  0
  2  3  1  0
  2 29  2  0
  3  4  1  0
  3  5  2  0
  5  6  1  0
  5  7  1  0
  7  8  1  0
  7 27  2  0
  8  9  1  0
  8 24  1  0
  9 10  1  0
  9 11  1  0
  9 12  1  0
 12 13  1  0
 12 14  1  0
 12 15  1  0
 15 16  1  0
 15 21  1  0
 16 17  2  0
 16 18  1  0
 18 19  1  0
 18 20  1  0
 21 22  1  0
 21 23  1  0
 21 24  1  0
 24 25  1  0
 24 26  1  0
 27 28  1  0
 27 29  1  0
 29 30  1  0
M  END
$$$$
