F600_89
     RDKit          3D

 16 16  0  0  0  0  0  0  0  0999 V2000
  -18.4443   16.3678   27.5181 O   0  0  0  0  0  0  0  0  0  0  0  0
  -17.4419   15.5148   26.9650 C   0  0  0  0  0  0  0  0  0  0  0  0
  -16.6114   16.1219   26.5843 H   0  0  0  0  0  0  0  0  0  0  0  0
  -17.0589   14.8355   27.7351 H   0  0  0  0  0  0  0  0  0  0  0  0
  -18.0650   14.7505   25.8470 C   0  0  0  0  0  0  0  0  0  0  0  0
  -19.1190   13.4363   26.1570 S   0  0  0  0  0  0  0  0  0  0  0  0
  -19.2392   13.2689   24.4685 C   0  0  0  0  0  0  0  0  0  0  0  0
  -20.0101   12.3058   23.9360 N   0  0  0  0  0  0  0  0  0  0  0  0
  -20.5394   11.6590   24.5072 H   0  0  0  0  0  0  0  0  0  0  0  0
  -20.0809   12.2061   22.9304 H   0  0  0  0  0  0  0  0  0  0  0  0
  -18.5492   14.1118   23.7659 N   0  0  0  0  0  0  0  0  0  0  0  0
  -17.8600   14.9817   24.5852 N   0  0  0  0  0  0  0  0  0  0  0  0
  -18.8217   17.3903   26.6070 C   0  0  0  0  0  0  0  0  0  0  0  0
  -19.5876   18.0095   27.0823 H   0  0  0  0  0  0  0  0  0  0  0  0
  -19.2411   16.9554   25.6948 H   0  0  0  0  0  0  0  0  0  0  0  0
  -17.9628   18.0230   26.3637 H   0  0  0  0  0  0  0  0  0  0  0  0
  1  2  1  0
  1 13  1  0
  2  3  1  0
  2  4  1  0
  2  5  1  0
  5  6  1  0
  5 12  2  0
  6  7  1  0
  7  8  1  0
  7 11  2  0
  8  9  1  0
  8 10  1  0
 11 12  1  0
 13 14  1  0
 13 15  1  0
 13 16  1  0
M  END
$$$$
