F529_29
     RDKit          3D

 23 23  0  0  0  0  0  0  0  0999 V2000
  -23.0065   12.2983   27.8011 S   0  0  0  0  0  0  0  0  0  0  0  0
  -21.9844   13.1750   27.2523 O   0  0  0  0  0  0  0  0  0  0  0  0
  -22.8699   10.8569   27.7139 O   0  0  0  0  0  0  0  0  0  0  0  0
  -24.5549   12.7542   27.0658 C   0  0  0  0  0  0  0  0  0  0  0  0
  -24.7226   13.8219   27.2212 H   0  0  0  0  0  0  0  0  0  0  0  0
  -25.3555   12.1659   27.5183 H   0  0  0  0  0  0  0  0  0  0  0  0
  -24.4985   12.5400   25.9970 H   0  0  0  0  0  0  0  0  0  0  0  0
  -23.2312   12.7123   29.5082 C   0  0  0  0  0  0  0  0  0  0  0  0
  -23.2548   11.7469   30.5297 C   0  0  0  0  0  0  0  0  0  0  0  0
  -23.1129   10.3995   30.2074 N   0  0  0  0  0  0  0  0  0  0  0  0
  -23.0182   10.1666   29.2083 H   0  0  0  0  0  0  0  0  0  0  0  0
  -23.1186    9.3060   31.1487 C   0  0  0  0  0  0  0  0  0  0  0  0
  -22.3237    9.4209   31.8933 H   0  0  0  0  0  0  0  0  0  0  0  0
  -22.9428    8.3657   30.6168 H   0  0  0  0  0  0  0  0  0  0  0  0
  -24.0854    9.2251   31.6551 H   0  0  0  0  0  0  0  0  0  0  0  0
  -23.3919   12.1412   31.8673 C   0  0  0  0  0  0  0  0  0  0  0  0
  -23.3815   11.4236   32.6439 H   0  0  0  0  0  0  0  0  0  0  0  0
  -23.5433   13.4844   32.1847 C   0  0  0  0  0  0  0  0  0  0  0  0
  -23.6557   13.7807   33.1961 H   0  0  0  0  0  0  0  0  0  0  0  0
  -23.5514   14.4437   31.1774 C   0  0  0  0  0  0  0  0  0  0  0  0
  -23.6750   15.4688   31.4217 H   0  0  0  0  0  0  0  0  0  0  0  0
  -23.3930   14.0574   29.8499 C   0  0  0  0  0  0  0  0  0  0  0  0
  -23.3949   14.7944   29.0873 H   0  0  0  0  0  0  0  0  0  0  0  0
  1  2  2  0
  1  3  2  0
  1  4  1  0
  1  8  1  0
  4  5  1  0
  4  6  1  0
  4  7  1  0
  8  9  1  0
  8 22  2  0
  9 10  1  0
  9 16  2  0
 10 11  1  0
 10 12  1  0
 12 13  1  0
 12 14  1  0
 12 15  1  0
 16 17  1  0
 16 18  1  0
 18 19  1  0
 18 20  2  0
 20 21  1  0
 20 22  1  0
 22 23  1  0
M  END
$$$$
