F603_77
     RDKit          3D

 24 25  0  0  0  0  0  0  0  0999 V2000
  -18.8949   13.3107   25.7254 S   0  0  0  0  0  0  0  0  0  0  0  0
  -20.0195   13.3403   24.8114 O   0  0  0  0  0  0  0  0  0  0  0  0
  -17.5793   12.8892   25.2726 O   0  0  0  0  0  0  0  0  0  0  0  0
  -19.3254   12.3130   27.1421 C   0  0  0  0  0  0  0  0  0  0  0  0
  -19.2328   11.2624   26.8531 H   0  0  0  0  0  0  0  0  0  0  0  0
  -18.6135   12.5415   27.9400 H   0  0  0  0  0  0  0  0  0  0  0  0
  -20.7213   12.6125   27.5631 C   0  0  0  0  0  0  0  0  0  0  0  0
  -21.8003   11.8906   27.1302 N   0  0  0  0  0  0  0  0  0  0  0  0
  -21.7848   11.1086   26.4602 H   0  0  0  0  0  0  0  0  0  0  0  0
  -22.9081   12.3854   27.7351 C   0  0  0  0  0  0  0  0  0  0  0  0
  -22.4448   13.4114   28.5323 C   0  0  0  0  0  0  0  0  0  0  0  0
  -21.0769   13.5271   28.4031 N   0  0  0  0  0  0  0  0  0  0  0  0
  -23.3595   14.1388   29.3052 C   0  0  0  0  0  0  0  0  0  0  0  0
  -23.0113   14.9285   29.9180 H   0  0  0  0  0  0  0  0  0  0  0  0
  -24.7078   13.8095   29.2486 C   0  0  0  0  0  0  0  0  0  0  0  0
  -25.4084   14.3534   29.8280 H   0  0  0  0  0  0  0  0  0  0  0  0
  -25.1578   12.7524   28.4236 C   0  0  0  0  0  0  0  0  0  0  0  0
  -26.1920   12.5169   28.3958 H   0  0  0  0  0  0  0  0  0  0  0  0
  -24.2608   12.0272   27.6558 C   0  0  0  0  0  0  0  0  0  0  0  0
  -24.5842   11.2337   27.0327 H   0  0  0  0  0  0  0  0  0  0  0  0
  -18.7285   14.9339   26.4237 C   0  0  0  0  0  0  0  0  0  0  0  0
  -19.6837   15.2280   26.8620 H   0  0  0  0  0  0  0  0  0  0  0  0
  -18.4556   15.6235   25.6224 H   0  0  0  0  0  0  0  0  0  0  0  0
  -17.9434   14.9138   27.1827 H   0  0  0  0  0  0  0  0  0  0  0  0
  1  2  2  0
  1  3  2  0
  1  4  1  0
  1 21  1  0
  4  5  1  0
  4  6  1  0
  4  7  1  0
  7  8  1  0
  7 12  2  0
  8  9  1  0
  8 10  1  0
 10 11  1  0
 10 19  2  0
 11 12  1  0
 11 13  2  0
 13 14  1  0
 13 15  1  0
 15 16  1  0
 15 17  2  0
 17 18  1  0
 17 19  1  0
 19 20  1  0
 21 22  1  0
 21 23  1  0
 21 24  1  0
M  END
$$$$
