F369_14
     RDKit          3D

 32 33  0  0  0  0  0  0  0  0999 V2000
  -17.0913   16.3417   28.1374 O   0  0  0  0  0  0  0  0  0  0  0  0
  -16.7185   16.8149   27.0819 C   0  0  0  0  0  0  0  0  0  0  0  0
  -17.1266   16.2797   25.8931 N   0  0  0  0  0  0  0  0  0  0  0  0
  -16.7468   16.7565   25.0693 H   0  0  0  0  0  0  0  0  0  0  0  0
  -17.9651   15.1962   25.6796 C   0  0  0  0  0  0  0  0  0  0  0  0
  -18.6349   14.4773   26.6039 C   0  0  0  0  0  0  0  0  0  0  0  0
  -18.6890   14.5593   27.6575 H   0  0  0  0  0  0  0  0  0  0  0  0
  -19.3033   13.5357   25.8958 N   0  0  0  0  0  0  0  0  0  0  0  0
  -20.1720   12.4959   26.4057 C   0  0  0  0  0  0  0  0  0  0  0  0
  -20.1370   12.5427   27.4994 H   0  0  0  0  0  0  0  0  0  0  0  0
  -21.1948   12.7300   26.0905 H   0  0  0  0  0  0  0  0  0  0  0  0
  -19.7710   11.1173   25.9114 C   0  0  0  0  0  0  0  0  0  0  0  0
  -18.7549   10.8626   26.2305 H   0  0  0  0  0  0  0  0  0  0  0  0
  -19.7992   11.0668   24.8174 H   0  0  0  0  0  0  0  0  0  0  0  0
  -20.4532   10.3586   26.3061 H   0  0  0  0  0  0  0  0  0  0  0  0
  -19.0789   13.6426   24.5531 N   0  0  0  0  0  0  0  0  0  0  0  0
  -18.2607   14.6561   24.4312 C   0  0  0  0  0  0  0  0  0  0  0  0
  -17.8900   15.0000   23.5008 H   0  0  0  0  0  0  0  0  0  0  0  0
  -15.7734   18.0049   27.0092 C   0  0  0  0  0  0  0  0  0  0  0  0
  -15.5303   18.2812   28.0429 H   0  0  0  0  0  0  0  0  0  0  0  0
  -14.4811   17.6847   26.2464 C   0  0  0  0  0  0  0  0  0  0  0  0
  -13.6503   17.4855   26.9315 H   0  0  0  0  0  0  0  0  0  0  0  0
  -14.5868   16.8019   25.6066 H   0  0  0  0  0  0  0  0  0  0  0  0
  -14.2056   18.9165   25.3957 C   0  0  0  0  0  0  0  0  0  0  0  0
  -13.6805   19.6747   25.9884 H   0  0  0  0  0  0  0  0  0  0  0  0
  -13.5960   18.6873   24.5172 H   0  0  0  0  0  0  0  0  0  0  0  0
  -15.5930   19.4100   25.0254 C   0  0  0  0  0  0  0  0  0  0  0  0
  -16.0129   18.7951   24.2219 H   0  0  0  0  0  0  0  0  0  0  0  0
  -15.5878   20.4505   24.6891 H   0  0  0  0  0  0  0  0  0  0  0  0
  -16.3921   19.2245   26.3095 C   0  0  0  0  0  0  0  0  0  0  0  0
  -17.4637   19.1270   26.1093 H   0  0  0  0  0  0  0  0  0  0  0  0
  -16.2603   20.1090   26.9462 H   0  0  0  0  0  0  0  0  0  0  0  0
  1  2  2  0
  2  3  1  0
  2 19  1  0
  3  4  1  0
  3  5  1  0
  5  6  2  0
  5 17  1  0
  6  7  1  0
  6  8  1  0
  8  9  1  0
  8 16  1  0
  9 10  1  0
  9 11  1  0
  9 12  1  0
 12 13  1  0
 12 14  1  0
 12 15  1  0
 16 17  2  0
 17 18  1  0
 19 20  1  0
 19 21  1  0
 19 30  1  0
 21 22  1  0
 21 23  1  0
 21 24  1  0
 24 25  1  0
 24 26  1  0
 24 27  1  0
 27 28  1  0
 27 29  1  0
 27 30  1  0
 30 31  1  0
 30 32  1  0
M  END
$$$$
