F368
     RDKit          3D

 29 30  0  0  0  0  0  0  0  0999 V2000
  -18.9110   13.7384   31.3722 C   0  0  0  0  0  0  0  0  0  0  0  0
  -19.8797   14.7999   30.8647 C   0  0  0  0  0  0  0  0  0  0  0  0
  -19.5010   15.2358   29.5243 N   0  0  0  0  0  0  0  0  0  0  0  0
  -19.6024   14.5007   28.4027 C   0  0  0  0  0  0  0  0  0  0  0  0
  -19.1340   15.2705   27.3613 C   0  0  0  0  0  0  0  0  0  0  0  0
  -18.9273   14.8644   26.0038 N   0  0  0  0  0  0  0  0  0  0  0  0
  -19.3206   13.5777   25.5089 C   0  0  0  0  0  0  0  0  0  0  0  0
  -20.3540   13.0156   25.9641 O   0  0  0  0  0  0  0  0  0  0  0  0
  -18.5617   12.9518   24.3676 C   0  0  0  0  0  0  0  0  0  0  0  0
  -19.3074   11.8311   23.6390 C   0  0  0  0  0  0  0  0  0  0  0  0
  -18.2449   10.8347   24.0797 C   0  0  0  0  0  0  0  0  0  0  0  0
  -17.5091   11.9401   24.8232 C   0  0  0  0  0  0  0  0  0  0  0  0
  -18.7460   16.4703   27.9209 C   0  0  0  0  0  0  0  0  0  0  0  0
  -18.9886   16.4273   29.2468 N   0  0  0  0  0  0  0  0  0  0  0  0
  -17.8835   14.1550   31.4376 H   0  0  0  0  0  0  0  0  0  0  0  0
  -19.2238   13.3998   32.3824 H   0  0  0  0  0  0  0  0  0  0  0  0
  -18.9091   12.8655   30.6853 H   0  0  0  0  0  0  0  0  0  0  0  0
  -19.8705   15.6727   31.5518 H   0  0  0  0  0  0  0  0  0  0  0  0
  -20.9081   14.3763   30.8567 H   0  0  0  0  0  0  0  0  0  0  0  0
  -19.9478   13.4758   28.3627 H   0  0  0  0  0  0  0  0  0  0  0  0
  -18.3899   15.5007   25.3727 H   0  0  0  0  0  0  0  0  0  0  0  0
  -18.1471   13.7112   23.6688 H   0  0  0  0  0  0  0  0  0  0  0  0
  -20.3062   11.5824   24.0605 H   0  0  0  0  0  0  0  0  0  0  0  0
  -19.3164   11.9773   22.5368 H   0  0  0  0  0  0  0  0  0  0  0  0
  -18.6474   10.0554   24.7634 H   0  0  0  0  0  0  0  0  0  0  0  0
  -17.6580   10.4304   23.2261 H   0  0  0  0  0  0  0  0  0  0  0  0
  -16.5071   12.1478   24.3883 H   0  0  0  0  0  0  0  0  0  0  0  0
  -17.4876   11.7581   25.9210 H   0  0  0  0  0  0  0  0  0  0  0  0
  -18.2992   17.3098   27.4056 H   0  0  0  0  0  0  0  0  0  0  0  0
  1  2  1  0
  2  3  1  0
  3  4  1  0
  4  5  2  0
  5  6  1  0
  6  7  1  0
  7  8  2  0
  7  9  1  0
  9 10  1  0
 10 11  1  0
 11 12  1  0
  5 13  1  0
 13 14  2  0
 14  3  1  0
 12  9  1  0
  1 15  1  0
  1 16  1  0
  1 17  1  0
  2 18  1  0
  2 19  1  0
  4 20  1  0
  6 21  1  0
  9 22  1  0
 10 23  1  0
 10 24  1  0
 11 25  1  0
 11 26  1  0
 12 27  1  0
 12 28  1  0
 13 29  1  0
M  END
>  <CHROM.1>  (1) 
70.15027723,6.35931137,-161.40601547,2.33632749,1.28805204,0.40666983

>  <Name>  (1) 
F368

>  <RI>  (1) 
1.07639e+07

>  <Rbt.Current_Directory>  (1) 
/data/out

>  <Rbt.Executable>  (1) 
rbdock ($Id: //depot/dev/client3/rdock/2013.1/src/exe/rbdock.cxx#4 $)

>  <Rbt.Library>  (1) 
libRbt.so (2013.1, Build901 2013/11/27)

>  <Rbt.Parameter_File>  (1) 
/python_libraries/phenodiscovery/docking/templates/RDOCK_TETHER.conf

>  <Rbt.Receptor>  (1) 
/data/out/rdock-opt/grid/rdock-grid.prm

>  <SCORE>  (1) 
0.138147

>  <SCORE.INTER>  (1) 
0.366304

>  <SCORE.INTER.CONST>  (1) 
1

>  <SCORE.INTER.POLAR>  (1) 
0

>  <SCORE.INTER.REPUL>  (1) 
0

>  <SCORE.INTER.ROT>  (1) 
3

>  <SCORE.INTER.VDW>  (1) 
-8.0337

>  <SCORE.INTER.norm>  (1) 
0.0261646

>  <SCORE.INTRA>  (1) 
-0.228157

>  <SCORE.INTRA.DIHEDRAL>  (1) 
-1.9107

>  <SCORE.INTRA.DIHEDRAL.0>  (1) 
6.93738

>  <SCORE.INTRA.POLAR>  (1) 
0

>  <SCORE.INTRA.POLAR.0>  (1) 
0

>  <SCORE.INTRA.REPUL>  (1) 
0

>  <SCORE.INTRA.REPUL.0>  (1) 
0

>  <SCORE.INTRA.VDW>  (1) 
0.727193

>  <SCORE.INTRA.VDW.0>  (1) 
-1.96322

>  <SCORE.INTRA.norm>  (1) 
-0.0162969

>  <SCORE.RESTR>  (1) 
0

>  <SCORE.RESTR.CAVITY>  (1) 
0

>  <SCORE.RESTR.norm>  (1) 
0

>  <SCORE.SYSTEM>  (1) 
0

>  <SCORE.SYSTEM.CONST>  (1) 
0

>  <SCORE.SYSTEM.DIHEDRAL>  (1) 
0

>  <SCORE.SYSTEM.norm>  (1) 
0

>  <SCORE.heavy>  (1) 
14

>  <SCORE.norm>  (1) 
0.00986764

>  <TETHERED ATOMS>  (1) 
4,5,6,7,8,9,2,3,12

>  <skeledock_score>  (1) 
35

$$$$
