F687
     RDKit          3D

 24 25  0  0  0  0  0  0  0  0999 V2000
  -17.1899   14.6160   29.9917 F   0  0  0  0  0  0  0  0  0  0  0  0
  -18.5186   14.3389   29.9939 C   0  0  0  0  0  0  0  0  0  0  0  0
  -19.1399   13.9956   31.1987 C   0  0  0  0  0  0  0  0  0  0  0  0
  -20.5064   13.7116   31.2279 C   0  0  0  0  0  0  0  0  0  0  0  0
  -21.2560   13.7676   30.0513 C   0  0  0  0  0  0  0  0  0  0  0  0
  -20.6423   14.1122   28.8428 C   0  0  0  0  0  0  0  0  0  0  0  0
  -19.2640   14.4060   28.8017 C   0  0  0  0  0  0  0  0  0  0  0  0
  -18.6067   14.7784   27.5750 N   0  0  0  0  0  0  0  0  0  0  0  0
  -19.3272   15.1899   26.3696 C   0  0  0  0  0  0  0  0  0  0  0  0
  -19.8740   13.9966   25.6474 C   0  0  0  0  0  0  0  0  0  0  0  0
  -19.7397   12.6772   26.0364 C   0  0  0  0  0  0  0  0  0  0  0  0
  -20.4061   11.9669   25.0612 C   0  0  0  0  0  0  0  0  0  0  0  0
  -20.8984   12.8323   24.1569 N   0  0  0  0  0  0  0  0  0  0  0  0
  -20.5809   14.0690   24.5029 N   0  0  0  0  0  0  0  0  0  0  0  0
  -18.5612   13.9500   32.1123 H   0  0  0  0  0  0  0  0  0  0  0  0
  -20.9842   13.4459   32.1620 H   0  0  0  0  0  0  0  0  0  0  0  0
  -22.3150   13.5446   30.0752 H   0  0  0  0  0  0  0  0  0  0  0  0
  -21.2486   14.1469   27.9481 H   0  0  0  0  0  0  0  0  0  0  0  0
  -17.5610   14.8058   27.5637 H   0  0  0  0  0  0  0  0  0  0  0  0
  -18.6365   15.7453   25.6986 H   0  0  0  0  0  0  0  0  0  0  0  0
  -20.1713   15.8556   26.6485 H   0  0  0  0  0  0  0  0  0  0  0  0
  -19.2298   12.2875   26.9074 H   0  0  0  0  0  0  0  0  0  0  0  0
  -20.5242   10.8924   25.0140 H   0  0  0  0  0  0  0  0  0  0  0  0
  -21.4492   12.5837   23.3058 H   0  0  0  0  0  0  0  0  0  0  0  0
  1  2  1  0
  2  3  2  0
  3  4  1  0
  4  5  2  0
  5  6  1  0
  6  7  2  0
  7  8  1  0
  8  9  1  0
  9 10  1  0
 10 11  1  0
 11 12  2  0
 12 13  1  0
 13 14  1  0
  2  7  1  0
 10 14  2  0
  3 15  1  0
  4 16  1  0
  5 17  1  0
  6 18  1  0
  8 19  1  0
  9 20  1  0
  9 21  1  0
 11 22  1  0
 12 23  1  0
 13 24  1  0
M  END
>  <CHROM.1>  (1) 
-164.64993161,-78.50943837,0.14395153,-1.39692982,-0.26498815,-1.48297655

>  <Name>  (1) 
F687

>  <RI>  (1) 
2.10624e+07

>  <Rbt.Current_Directory>  (1) 
/data/out

>  <Rbt.Executable>  (1) 
rbdock ($Id: //depot/dev/client3/rdock/2013.1/src/exe/rbdock.cxx#4 $)

>  <Rbt.Library>  (1) 
libRbt.so (2013.1, Build901 2013/11/27)

>  <Rbt.Parameter_File>  (1) 
/python_libraries/phenodiscovery/docking/templates/RDOCK_TETHER.conf

>  <Rbt.Receptor>  (1) 
/data/out/rdock-opt/grid/rdock-grid.prm

>  <SCORE>  (1) 
-3.74472

>  <SCORE.INTER>  (1) 
-3.23996

>  <SCORE.INTER.CONST>  (1) 
1

>  <SCORE.INTER.POLAR>  (1) 
-0.506105

>  <SCORE.INTER.REPUL>  (1) 
0

>  <SCORE.INTER.ROT>  (1) 
3

>  <SCORE.INTER.VDW>  (1) 
-9.9192

>  <SCORE.INTER.norm>  (1) 
-0.231425

>  <SCORE.INTRA>  (1) 
-0.504763

>  <SCORE.INTRA.DIHEDRAL>  (1) 
0.410446

>  <SCORE.INTRA.DIHEDRAL.0>  (1) 
2.76247

>  <SCORE.INTRA.POLAR>  (1) 
0

>  <SCORE.INTRA.POLAR.0>  (1) 
0

>  <SCORE.INTRA.REPUL>  (1) 
0

>  <SCORE.INTRA.REPUL.0>  (1) 
0

>  <SCORE.INTRA.VDW>  (1) 
-0.709986

>  <SCORE.INTRA.VDW.0>  (1) 
-0.568964

>  <SCORE.INTRA.norm>  (1) 
-0.0360545

>  <SCORE.RESTR>  (1) 
0

>  <SCORE.RESTR.CAVITY>  (1) 
0

>  <SCORE.RESTR.norm>  (1) 
0

>  <SCORE.SYSTEM>  (1) 
0

>  <SCORE.SYSTEM.CONST>  (1) 
0

>  <SCORE.SYSTEM.DIHEDRAL>  (1) 
0

>  <SCORE.SYSTEM.norm>  (1) 
0

>  <SCORE.heavy>  (1) 
14

>  <SCORE.norm>  (1) 
-0.26748

>  <TETHERED ATOMS>  (1) 
2,7,6,5,4,1,8,3,9,10,14

>  <skeledock_score>  (1) 
50

$$$$
