F367
     RDKit          3D

 31 32  0  0  0  0  0  0  0  0999 V2000
  -20.7495   14.8303   33.5778 C   0  0  0  0  0  0  0  0  0  0  0  0
  -20.4245   13.6410   32.6803 C   0  0  0  0  0  0  0  0  0  0  0  0
  -20.4216   14.0415   31.2760 N   0  0  0  0  0  0  0  0  0  0  0  0
  -19.3639   14.5114   30.5872 C   0  0  0  0  0  0  0  0  0  0  0  0
  -19.7772   14.7587   29.2965 C   0  0  0  0  0  0  0  0  0  0  0  0
  -18.9774   15.3815   28.1970 C   0  0  0  0  0  0  0  0  0  0  0  0
  -18.5399   14.3485   27.2622 N   0  0  0  0  0  0  0  0  0  0  0  0
  -18.7741   14.4412   25.8472 C   0  0  0  0  0  0  0  0  0  0  0  0
  -19.2927   15.4848   25.3638 O   0  0  0  0  0  0  0  0  0  0  0  0
  -18.4455   13.3124   24.9483 C   0  0  0  0  0  0  0  0  0  0  0  0
  -18.7319   11.9846   25.3072 C   0  0  0  0  0  0  0  0  0  0  0  0
  -18.4144   10.9397   24.4373 C   0  0  0  0  0  0  0  0  0  0  0  0
  -17.8099   11.2277   23.2134 C   0  0  0  0  0  0  0  0  0  0  0  0
  -17.5322   12.5150   22.8787 N   0  0  0  0  0  0  0  0  0  0  0  0
  -17.8302   13.5506   23.7084 C   0  0  0  0  0  0  0  0  0  0  0  0
  -21.1192   14.4292   29.2718 C   0  0  0  0  0  0  0  0  0  0  0  0
  -21.4869   13.9848   30.4904 N   0  0  0  0  0  0  0  0  0  0  0  0
  -20.7871   14.4989   34.6369 H   0  0  0  0  0  0  0  0  0  0  0  0
  -21.7361   15.2582   33.3002 H   0  0  0  0  0  0  0  0  0  0  0  0
  -19.9695   15.6143   33.4779 H   0  0  0  0  0  0  0  0  0  0  0  0
  -19.4299   13.2255   32.9511 H   0  0  0  0  0  0  0  0  0  0  0  0
  -21.1872   12.8487   32.8433 H   0  0  0  0  0  0  0  0  0  0  0  0
  -18.3743   14.6729   30.9956 H   0  0  0  0  0  0  0  0  0  0  0  0
  -18.0871   15.8913   28.6234 H   0  0  0  0  0  0  0  0  0  0  0  0
  -19.5858   16.1528   27.6776 H   0  0  0  0  0  0  0  0  0  0  0  0
  -18.2202   13.4423   27.6713 H   0  0  0  0  0  0  0  0  0  0  0  0
  -19.1779   11.7483   26.2643 H   0  0  0  0  0  0  0  0  0  0  0  0
  -18.6302    9.9152   24.7118 H   0  0  0  0  0  0  0  0  0  0  0  0
  -17.5582   10.4276   22.5304 H   0  0  0  0  0  0  0  0  0  0  0  0
  -17.5947   14.5595   23.3945 H   0  0  0  0  0  0  0  0  0  0  0  0
  -21.7881   14.5183   28.4263 H   0  0  0  0  0  0  0  0  0  0  0  0
  1  2  1  0
  2  3  1  0
  3  4  1  0
  4  5  2  0
  5  6  1  0
  6  7  1  0
  7  8  1  0
  8  9  2  0
  8 10  1  0
 10 11  2  0
 11 12  1  0
 12 13  2  0
 13 14  1  0
 14 15  2  0
  5 16  1  0
 16 17  2  0
 17  3  1  0
 10 15  1  0
  1 18  1  0
  1 19  1  0
  1 20  1  0
  2 21  1  0
  2 22  1  0
  4 23  1  0
  6 24  1  0
  6 25  1  0
  7 26  1  0
 11 27  1  0
 12 28  1  0
 13 29  1  0
 15 30  1  0
 16 31  1  0
M  END
>  <CHROM.1>  (1) 
89.14010228,103.86794930,127.43292340,41.87124281,-1.92529354,0.00608147
-1.59140425

>  <Name>  (1) 
F367

>  <RI>  (1) 
2.21999e+07

>  <Rbt.Current_Directory>  (1) 
/data/out

>  <Rbt.Executable>  (1) 
rbdock ($Id: //depot/dev/client3/rdock/2013.1/src/exe/rbdock.cxx#4 $)

>  <Rbt.Library>  (1) 
libRbt.so (2013.1, Build901 2013/11/27)

>  <Rbt.Parameter_File>  (1) 
/python_libraries/phenodiscovery/docking/templates/RDOCK_TETHER.conf

>  <Rbt.Receptor>  (1) 
/data/out/rdock-opt/grid/rdock-grid.prm

>  <SCORE>  (1) 
-1.36657

>  <SCORE.INTER>  (1) 
-3.2498

>  <SCORE.INTER.CONST>  (1) 
1

>  <SCORE.INTER.POLAR>  (1) 
0

>  <SCORE.INTER.REPUL>  (1) 
0.00919237

>  <SCORE.INTER.ROT>  (1) 
4

>  <SCORE.INTER.VDW>  (1) 
-12.6958

>  <SCORE.INTER.norm>  (1) 
-0.191165

>  <SCORE.INTRA>  (1) 
1.88323

>  <SCORE.INTRA.DIHEDRAL>  (1) 
3.01872

>  <SCORE.INTRA.DIHEDRAL.0>  (1) 
7.84982

>  <SCORE.INTRA.POLAR>  (1) 
0

>  <SCORE.INTRA.POLAR.0>  (1) 
0

>  <SCORE.INTRA.REPUL>  (1) 
0

>  <SCORE.INTRA.REPUL.0>  (1) 
0

>  <SCORE.INTRA.VDW>  (1) 
0.373866

>  <SCORE.INTRA.VDW.0>  (1) 
-2.28849

>  <SCORE.INTRA.norm>  (1) 
0.110778

>  <SCORE.RESTR>  (1) 
0

>  <SCORE.RESTR.CAVITY>  (1) 
0

>  <SCORE.RESTR.norm>  (1) 
0

>  <SCORE.SYSTEM>  (1) 
0

>  <SCORE.SYSTEM.CONST>  (1) 
0

>  <SCORE.SYSTEM.DIHEDRAL>  (1) 
0

>  <SCORE.SYSTEM.norm>  (1) 
0

>  <SCORE.heavy>  (1) 
17

>  <SCORE.norm>  (1) 
-0.0803866

>  <TETHERED ATOMS>  (1) 
4,5,6,7,8,9,10,16,3,17,15

>  <skeledock_score>  (1) 
56

$$$$
