F275
     RDKit          3D

 20 20  0  0  0  0  0  0  0  0999 V2000
  -19.7618   14.1183   32.0397 C   0  0  0  0  0  0  0  0  0  0  0  0
  -19.7214   14.9204   30.7726 C   0  0  0  0  0  0  0  0  0  0  0  0
  -19.1891   16.2180   30.7880 C   0  0  0  0  0  0  0  0  0  0  0  0
  -19.1458   16.9751   29.6140 C   0  0  0  0  0  0  0  0  0  0  0  0
  -18.6302   18.2289   29.6362 F   0  0  0  0  0  0  0  0  0  0  0  0
  -19.6339   16.4426   28.4176 C   0  0  0  0  0  0  0  0  0  0  0  0
  -20.1679   15.1463   28.3896 C   0  0  0  0  0  0  0  0  0  0  0  0
  -20.2097   14.3881   29.5681 C   0  0  0  0  0  0  0  0  0  0  0  0
  -20.7872   14.4607   26.8904 S   0  0  0  0  0  0  0  0  0  0  0  0
  -19.8137   13.4410   26.3699 O   0  0  0  0  0  0  0  0  0  0  0  0
  -20.9612   15.5389   25.8576 O   0  0  0  0  0  0  0  0  0  0  0  0
  -22.3179   13.7133   27.1867 N   0  0  0  0  0  0  0  0  0  0  0  0
  -20.3702   14.6523   32.7997 H   0  0  0  0  0  0  0  0  0  0  0  0
  -20.2081   13.1148   31.8736 H   0  0  0  0  0  0  0  0  0  0  0  0
  -18.7306   13.9844   32.4293 H   0  0  0  0  0  0  0  0  0  0  0  0
  -18.8086   16.6409   31.7098 H   0  0  0  0  0  0  0  0  0  0  0  0
  -19.5947   17.0420   27.5175 H   0  0  0  0  0  0  0  0  0  0  0  0
  -20.6209   13.3862   29.5447 H   0  0  0  0  0  0  0  0  0  0  0  0
  -22.2847   13.3165   28.1523 H   0  0  0  0  0  0  0  0  0  0  0  0
  -22.3939   12.9030   26.5318 H   0  0  0  0  0  0  0  0  0  0  0  0
  1  2  1  0
  2  3  2  0
  3  4  1  0
  4  5  1  0
  4  6  2  0
  6  7  1  0
  7  8  2  0
  7  9  1  0
  9 10  2  0
  9 11  2  0
  9 12  1  0
  2  8  1  0
  1 13  1  0
  1 14  1  0
  1 15  1  0
  3 16  1  0
  6 17  1  0
  8 18  1  0
 12 19  1  0
 12 20  1  0
M  END
>  <CHROM.1>  (1) 
105.61458493,-33.80423720,0.51122548,1.29796189,2.10888130

>  <Name>  (1) 
F275

>  <RI>  (1) 
3.40264e+07

>  <Rbt.Current_Directory>  (1) 
/data/out

>  <Rbt.Executable>  (1) 
rbdock ($Id: //depot/dev/client3/rdock/2013.1/src/exe/rbdock.cxx#4 $)

>  <Rbt.Library>  (1) 
libRbt.so (2013.1, Build901 2013/11/27)

>  <Rbt.Parameter_File>  (1) 
/python_libraries/phenodiscovery/docking/templates/RDOCK_TETHER.conf

>  <Rbt.Receptor>  (1) 
/data/out/rdock-opt/grid/rdock-grid.prm

>  <SCORE>  (1) 
-0.276591

>  <SCORE.INTER>  (1) 
-1.06619

>  <SCORE.INTER.CONST>  (1) 
1

>  <SCORE.INTER.POLAR>  (1) 
-0.870671

>  <SCORE.INTER.REPUL>  (1) 
0

>  <SCORE.INTER.ROT>  (1) 
2

>  <SCORE.INTER.VDW>  (1) 
-5.5059

>  <SCORE.INTER.norm>  (1) 
-0.0888488

>  <SCORE.INTRA>  (1) 
0.789595

>  <SCORE.INTRA.DIHEDRAL>  (1) 
1.11245

>  <SCORE.INTRA.DIHEDRAL.0>  (1) 
1.22282

>  <SCORE.INTRA.POLAR>  (1) 
0

>  <SCORE.INTRA.POLAR.0>  (1) 
0

>  <SCORE.INTRA.REPUL>  (1) 
0

>  <SCORE.INTRA.REPUL.0>  (1) 
0

>  <SCORE.INTRA.VDW>  (1) 
0.23337

>  <SCORE.INTRA.VDW.0>  (1) 
-0.86545

>  <SCORE.INTRA.norm>  (1) 
0.0657996

>  <SCORE.RESTR>  (1) 
0

>  <SCORE.RESTR.CAVITY>  (1) 
0

>  <SCORE.RESTR.norm>  (1) 
0

>  <SCORE.SYSTEM>  (1) 
0

>  <SCORE.SYSTEM.CONST>  (1) 
0

>  <SCORE.SYSTEM.DIHEDRAL>  (1) 
0

>  <SCORE.SYSTEM.norm>  (1) 
0

>  <SCORE.heavy>  (1) 
12

>  <SCORE.norm>  (1) 
-0.0230492

>  <TETHERED ATOMS>  (1) 
2,8,7,6,3,4,9,10

>  <skeledock_score>  (1) 
41

$$$$
