F501
     RDKit          3D

 24 25  0  0  0  0  0  0  0  0999 V2000
  -21.2478   12.9091   27.4032 C   0  0  0  0  0  0  0  0  0  0  0  0
  -20.0581   13.3870   28.0937 N   0  0  0  0  0  0  0  0  0  0  0  0
  -18.8522   12.8455   27.9838 N   0  0  0  0  0  0  0  0  0  0  0  0
  -17.9719   13.5089   28.7270 N   0  0  0  0  0  0  0  0  0  0  0  0
  -18.6588   14.4986   29.3309 C   0  0  0  0  0  0  0  0  0  0  0  0
  -18.1101   15.5504   30.2390 C   0  0  0  0  0  0  0  0  0  0  0  0
  -19.2576   16.2113   31.0303 C   0  0  0  0  0  0  0  0  0  0  0  0
  -20.4508   16.5926   30.1083 C   0  0  0  0  0  0  0  0  0  0  0  0
  -21.0511   15.3503   29.3993 C   0  0  0  0  0  0  0  0  0  0  0  0
  -19.9607   14.4383   28.9225 C   0  0  0  0  0  0  0  0  0  0  0  0
  -21.5360   17.3310   30.8499 C   0  0  0  0  0  0  0  0  0  0  0  0
  -21.5019   17.4524   32.1049 O   0  0  0  0  0  0  0  0  0  0  0  0
  -22.5927   17.8870   30.1351 O   0  0  0  0  0  0  0  0  0  0  0  0
  -21.6408   13.7068   26.7386 H   0  0  0  0  0  0  0  0  0  0  0  0
  -21.0021   12.0170   26.7889 H   0  0  0  0  0  0  0  0  0  0  0  0
  -22.0252   12.6323   28.1459 H   0  0  0  0  0  0  0  0  0  0  0  0
  -17.5888   16.3169   29.6265 H   0  0  0  0  0  0  0  0  0  0  0  0
  -17.3799   15.0974   30.9428 H   0  0  0  0  0  0  0  0  0  0  0  0
  -18.8625   17.1212   31.5327 H   0  0  0  0  0  0  0  0  0  0  0  0
  -19.6072   15.5073   31.8181 H   0  0  0  0  0  0  0  0  0  0  0  0
  -20.0602   17.2827   29.3275 H   0  0  0  0  0  0  0  0  0  0  0  0
  -21.7039   14.7801   30.0955 H   0  0  0  0  0  0  0  0  0  0  0  0
  -21.6598   15.6806   28.5303 H   0  0  0  0  0  0  0  0  0  0  0  0
  -22.6369   17.8075   29.1262 H   0  0  0  0  0  0  0  0  0  0  0  0
  1  2  1  0
  2  3  1  0
  3  4  2  0
  4  5  1  0
  5  6  1  0
  6  7  1  0
  7  8  1  0
  8  9  1  0
  9 10  1  0
  8 11  1  0
 11 12  2  0
 11 13  1  0
 10  2  1  0
  5 10  2  0
  1 14  1  0
  1 15  1  0
  1 16  1  0
  6 17  1  0
  6 18  1  0
  7 19  1  0
  7 20  1  0
  8 21  1  0
  9 22  1  0
  9 23  1  0
 13 24  1  0
M  END
>  <CHROM.1>  (1) 
-7.97669833,-0.46559097,-1.31321214,0.22913717,-2.46829042

>  <Name>  (1) 
F501

>  <RI>  (1) 
1.61021e+07

>  <Rbt.Current_Directory>  (1) 
/data/out

>  <Rbt.Executable>  (1) 
rbdock ($Id: //depot/dev/client3/rdock/2013.1/src/exe/rbdock.cxx#4 $)

>  <Rbt.Library>  (1) 
libRbt.so (2013.1, Build901 2013/11/27)

>  <Rbt.Parameter_File>  (1) 
/python_libraries/phenodiscovery/docking/templates/RDOCK_TETHER.conf

>  <Rbt.Receptor>  (1) 
/data/out/rdock-opt/grid/rdock-grid.prm

>  <SCORE>  (1) 
-0.269443

>  <SCORE.INTER>  (1) 
-0.158368

>  <SCORE.INTER.CONST>  (1) 
1

>  <SCORE.INTER.POLAR>  (1) 
0

>  <SCORE.INTER.REPUL>  (1) 
0

>  <SCORE.INTER.ROT>  (1) 
1

>  <SCORE.INTER.VDW>  (1) 
-6.55837

>  <SCORE.INTER.norm>  (1) 
-0.0121821

>  <SCORE.INTRA>  (1) 
-0.111075

>  <SCORE.INTRA.DIHEDRAL>  (1) 
0.0113529

>  <SCORE.INTRA.DIHEDRAL.0>  (1) 
0.61826

>  <SCORE.INTRA.POLAR>  (1) 
0

>  <SCORE.INTRA.POLAR.0>  (1) 
0

>  <SCORE.INTRA.REPUL>  (1) 
0

>  <SCORE.INTRA.REPUL.0>  (1) 
0

>  <SCORE.INTRA.VDW>  (1) 
-0.116751

>  <SCORE.INTRA.VDW.0>  (1) 
-0.689864

>  <SCORE.INTRA.norm>  (1) 
-0.00854421

>  <SCORE.RESTR>  (1) 
0

>  <SCORE.RESTR.CAVITY>  (1) 
0

>  <SCORE.RESTR.norm>  (1) 
0

>  <SCORE.SYSTEM>  (1) 
0

>  <SCORE.SYSTEM.CONST>  (1) 
0

>  <SCORE.SYSTEM.DIHEDRAL>  (1) 
0

>  <SCORE.SYSTEM.norm>  (1) 
0

>  <SCORE.heavy>  (1) 
13

>  <SCORE.norm>  (1) 
-0.0207264

>  <TETHERED ATOMS>  (1) 
5,6,7,8,9,10,1,2,4

>  <skeledock_score>  (1) 
37

$$$$
