F14
     RDKit          3D

 19 19  0  0  0  0  0  0  0  0999 V2000
  -25.5158   17.1497   29.8012 Br  0  0  0  0  0  0  0  0  0  0  0  0
  -23.7393   16.6198   29.3618 C   0  0  0  0  0  0  0  0  0  0  0  0
  -23.3546   15.5475   28.5901 C   0  0  0  0  0  0  0  0  0  0  0  0
  -22.0092   15.5380   28.5393 N   0  0  0  0  0  0  0  0  0  0  0  0
  -21.1858   14.5915   27.7937 C   0  0  0  0  0  0  0  0  0  0  0  0
  -19.9629   14.1902   28.6180 C   0  0  0  0  0  0  0  0  0  0  0  0
  -19.1203   13.3415   27.8606 O   0  0  0  0  0  0  0  0  0  0  0  0
  -17.9547   13.0256   28.5892 C   0  0  0  0  0  0  0  0  0  0  0  0
  -21.5207   16.5593   29.2268 N   0  0  0  0  0  0  0  0  0  0  0  0
  -22.5648   17.2351   29.7456 C   0  0  0  0  0  0  0  0  0  0  0  0
  -24.0037   14.8328   28.1007 H   0  0  0  0  0  0  0  0  0  0  0  0
  -21.7887   13.6904   27.5512 H   0  0  0  0  0  0  0  0  0  0  0  0
  -20.8564   15.0512   26.8359 H   0  0  0  0  0  0  0  0  0  0  0  0
  -19.3872   15.1091   28.8599 H   0  0  0  0  0  0  0  0  0  0  0  0
  -20.2834   13.7533   29.5945 H   0  0  0  0  0  0  0  0  0  0  0  0
  -18.2000   12.5597   29.5693 H   0  0  0  0  0  0  0  0  0  0  0  0
  -17.3243   13.9302   28.7363 H   0  0  0  0  0  0  0  0  0  0  0  0
  -17.3608   12.2917   28.0067 H   0  0  0  0  0  0  0  0  0  0  0  0
  -22.4754   18.1209   30.3599 H   0  0  0  0  0  0  0  0  0  0  0  0
  1  2  1  0
  2  3  2  0
  3  4  1  0
  4  5  1  0
  5  6  1  0
  6  7  1  0
  7  8  1  0
  4  9  1  0
  9 10  2  0
 10  2  1  0
  3 11  1  0
  5 12  1  0
  5 13  1  0
  6 14  1  0
  6 15  1  0
  8 16  1  0
  8 17  1  0
  8 18  1  0
 10 19  1  0
M  END
>  <CHROM.1>  (1) 
-139.54267551,-176.16548380,176.83861163,-2.80066752,0.44615547,-1.83731888

>  <Name>  (1) 
F14

>  <RI>  (1) 
1.93748e+07

>  <Rbt.Current_Directory>  (1) 
/data/out

>  <Rbt.Executable>  (1) 
rbdock ($Id: //depot/dev/client3/rdock/2013.1/src/exe/rbdock.cxx#4 $)

>  <Rbt.Library>  (1) 
libRbt.so (2013.1, Build901 2013/11/27)

>  <Rbt.Parameter_File>  (1) 
/python_libraries/phenodiscovery/docking/templates/RDOCK_TETHER.conf

>  <Rbt.Receptor>  (1) 
/data/out/rdock-opt/grid/rdock-grid.prm

>  <SCORE>  (1) 
-2.92727

>  <SCORE.INTER>  (1) 
-0.791721

>  <SCORE.INTER.CONST>  (1) 
1

>  <SCORE.INTER.POLAR>  (1) 
-0.311653

>  <SCORE.INTER.REPUL>  (1) 
0

>  <SCORE.INTER.ROT>  (1) 
3

>  <SCORE.INTER.VDW>  (1) 
-8.1321

>  <SCORE.INTER.norm>  (1) 
-0.0791721

>  <SCORE.INTRA>  (1) 
-2.13555

>  <SCORE.INTRA.DIHEDRAL>  (1) 
-4.74992

>  <SCORE.INTRA.DIHEDRAL.0>  (1) 
7.35488

>  <SCORE.INTRA.POLAR>  (1) 
0

>  <SCORE.INTRA.POLAR.0>  (1) 
0

>  <SCORE.INTRA.REPUL>  (1) 
0

>  <SCORE.INTRA.REPUL.0>  (1) 
0

>  <SCORE.INTRA.VDW>  (1) 
0.239415

>  <SCORE.INTRA.VDW.0>  (1) 
0.496491

>  <SCORE.INTRA.norm>  (1) 
-0.213555

>  <SCORE.RESTR>  (1) 
0

>  <SCORE.RESTR.CAVITY>  (1) 
0

>  <SCORE.RESTR.norm>  (1) 
0

>  <SCORE.SYSTEM>  (1) 
0

>  <SCORE.SYSTEM.CONST>  (1) 
0

>  <SCORE.SYSTEM.DIHEDRAL>  (1) 
0

>  <SCORE.SYSTEM.norm>  (1) 
0

>  <SCORE.heavy>  (1) 
10

>  <SCORE.norm>  (1) 
-0.292727

>  <TETHERED ATOMS>  (1) 
2,3,4,5,6,1,7,8

>  <skeledock_score>  (1) 
30

$$$$
