F179
     RDKit          3D

 29 30  0  0  0  0  0  0  0  0999 V2000
  -17.0446   11.1653   22.1142 C   0  0  0  0  0  0  0  0  0  0  0  0
  -16.2134   12.1131   22.9758 C   0  0  0  0  0  0  0  0  0  0  0  0
  -15.9112   13.2674   22.2379 O   0  0  0  0  0  0  0  0  0  0  0  0
  -16.9640   12.4850   24.2242 C   0  0  0  0  0  0  0  0  0  0  0  0
  -17.6763   11.6389   25.0525 C   0  0  0  0  0  0  0  0  0  0  0  0
  -18.2056   12.3538   26.0644 N   0  0  0  0  0  0  0  0  0  0  0  0
  -17.8380   13.6174   25.9014 N   0  0  0  0  0  0  0  0  0  0  0  0
  -17.0888   13.7373   24.7890 C   0  0  0  0  0  0  0  0  0  0  0  0
  -18.2690   14.7227   26.7637 C   0  0  0  0  0  0  0  0  0  0  0  0
  -18.6178   14.2293   28.1717 C   0  0  0  0  0  0  0  0  0  0  0  0
  -20.1318   14.2797   28.2724 C   0  0  0  0  0  0  0  0  0  0  0  0
  -20.5572   15.3897   27.3304 C   0  0  0  0  0  0  0  0  0  0  0  0
  -19.5338   15.3875   26.2038 C   0  0  0  0  0  0  0  0  0  0  0  0
  -17.2971   10.2474   22.6872 H   0  0  0  0  0  0  0  0  0  0  0  0
  -16.4640   10.8704   21.2144 H   0  0  0  0  0  0  0  0  0  0  0  0
  -17.9844   11.6580   21.7839 H   0  0  0  0  0  0  0  0  0  0  0  0
  -15.2708   11.5857   23.2520 H   0  0  0  0  0  0  0  0  0  0  0  0
  -15.4011   12.9702   21.4393 H   0  0  0  0  0  0  0  0  0  0  0  0
  -17.8067   10.5725   24.9250 H   0  0  0  0  0  0  0  0  0  0  0  0
  -16.6732   14.6637   24.4131 H   0  0  0  0  0  0  0  0  0  0  0  0
  -17.4538   15.4783   26.8385 H   0  0  0  0  0  0  0  0  0  0  0  0
  -18.1803   14.9211   28.9255 H   0  0  0  0  0  0  0  0  0  0  0  0
  -18.2359   13.2049   28.3749 H   0  0  0  0  0  0  0  0  0  0  0  0
  -20.4648   14.4804   29.3138 H   0  0  0  0  0  0  0  0  0  0  0  0
  -20.5611   13.3130   27.9276 H   0  0  0  0  0  0  0  0  0  0  0  0
  -21.5868   15.2207   26.9466 H   0  0  0  0  0  0  0  0  0  0  0  0
  -20.5214   16.3642   27.8661 H   0  0  0  0  0  0  0  0  0  0  0  0
  -19.3215   16.4259   25.8678 H   0  0  0  0  0  0  0  0  0  0  0  0
  -19.9396   14.8169   25.3391 H   0  0  0  0  0  0  0  0  0  0  0  0
  1  2  1  0
  2  3  1  0
  2  4  1  0
  4  5  1  0
  5  6  2  0
  6  7  1  0
  7  8  1  0
  7  9  1  0
  9 10  1  0
 10 11  1  0
 11 12  1  0
 12 13  1  0
  4  8  2  0
 13  9  1  0
  1 14  1  0
  1 15  1  0
  1 16  1  0
  2 17  1  0
  3 18  1  0
  5 19  1  0
  8 20  1  0
  9 21  1  0
 10 22  1  0
 10 23  1  0
 11 24  1  0
 11 25  1  0
 12 26  1  0
 12 27  1  0
 13 28  1  0
 13 29  1  0
M  END
>  <CHROM.1>  (1) 
-59.76544458,44.35976285,26.38309984,-2.08702777,-0.69609550,-2.67679870

>  <Name>  (1) 
F179

>  <RI>  (1) 
2.23563e+07

>  <Rbt.Current_Directory>  (1) 
/data/out

>  <Rbt.Executable>  (1) 
rbdock ($Id: //depot/dev/client3/rdock/2013.1/src/exe/rbdock.cxx#4 $)

>  <Rbt.Library>  (1) 
libRbt.so (2013.1, Build901 2013/11/27)

>  <Rbt.Parameter_File>  (1) 
/python_libraries/phenodiscovery/docking/templates/RDOCK_TETHER.conf

>  <Rbt.Receptor>  (1) 
/data/out/rdock-opt/grid/rdock-grid.prm

>  <SCORE>  (1) 
-5.80601

>  <SCORE.INTER>  (1) 
-6.30516

>  <SCORE.INTER.CONST>  (1) 
1

>  <SCORE.INTER.POLAR>  (1) 
0

>  <SCORE.INTER.REPUL>  (1) 
0

>  <SCORE.INTER.ROT>  (1) 
2

>  <SCORE.INTER.VDW>  (1) 
-13.7052

>  <SCORE.INTER.norm>  (1) 
-0.485012

>  <SCORE.INTRA>  (1) 
0.499142

>  <SCORE.INTRA.DIHEDRAL>  (1) 
-0.835492

>  <SCORE.INTRA.DIHEDRAL.0>  (1) 
4.56269

>  <SCORE.INTRA.POLAR>  (1) 
0

>  <SCORE.INTRA.POLAR.0>  (1) 
0

>  <SCORE.INTRA.REPUL>  (1) 
0

>  <SCORE.INTRA.REPUL.0>  (1) 
0

>  <SCORE.INTRA.VDW>  (1) 
0.916888

>  <SCORE.INTRA.VDW.0>  (1) 
-2.08637

>  <SCORE.INTRA.norm>  (1) 
0.0383956

>  <SCORE.RESTR>  (1) 
0

>  <SCORE.RESTR.CAVITY>  (1) 
0

>  <SCORE.RESTR.norm>  (1) 
0

>  <SCORE.SYSTEM>  (1) 
0

>  <SCORE.SYSTEM.CONST>  (1) 
0

>  <SCORE.SYSTEM.DIHEDRAL>  (1) 
0

>  <SCORE.SYSTEM.norm>  (1) 
0

>  <SCORE.heavy>  (1) 
13

>  <SCORE.norm>  (1) 
-0.446616

>  <TETHERED ATOMS>  (1) 
9,11,10,5,6

>  <skeledock_score>  (1) 
17

$$$$
