F709
     RDKit          3D

 29 30  0  0  0  0  0  0  0  0999 V2000
  -21.1824   12.9518   24.9304 N   0  0  0  0  0  0  0  0  0  0  0  0
  -20.4194   14.1507   25.1039 C   0  0  0  0  0  0  0  0  0  0  0  0
  -19.5397   14.4316   24.2469 O   0  0  0  0  0  0  0  0  0  0  0  0
  -20.6403   15.0279   26.2324 N   0  0  0  0  0  0  0  0  0  0  0  0
  -19.9017   16.2980   26.3513 C   0  0  0  0  0  0  0  0  0  0  0  0
  -19.3363   16.4500   27.7691 C   0  0  0  0  0  0  0  0  0  0  0  0
  -20.3087   16.0197   28.7812 N   0  0  0  0  0  0  0  0  0  0  0  0
  -21.6830   15.7046   28.3900 C   0  0  0  0  0  0  0  0  0  0  0  0
  -21.6582   14.6888   27.2436 C   0  0  0  0  0  0  0  0  0  0  0  0
  -19.8558   15.6922   30.0983 C   0  0  0  0  0  0  0  0  0  0  0  0
  -20.1879   16.4192   31.0713 O   0  0  0  0  0  0  0  0  0  0  0  0
  -19.0370   14.4931   30.3261 C   0  0  0  0  0  0  0  0  0  0  0  0
  -18.8560   13.8450   31.5358 C   0  0  0  0  0  0  0  0  0  0  0  0
  -18.0085   12.7947   31.2724 C   0  0  0  0  0  0  0  0  0  0  0  0
  -17.7235   12.8652   29.9243 C   0  0  0  0  0  0  0  0  0  0  0  0
  -18.3492   13.8875   29.3878 O   0  0  0  0  0  0  0  0  0  0  0  0
  -21.9373   12.6678   25.5911 H   0  0  0  0  0  0  0  0  0  0  0  0
  -20.9948   12.3327   24.1108 H   0  0  0  0  0  0  0  0  0  0  0  0
  -19.0630   16.3620   25.6260 H   0  0  0  0  0  0  0  0  0  0  0  0
  -20.5948   17.1399   26.1359 H   0  0  0  0  0  0  0  0  0  0  0  0
  -19.0570   17.5097   27.9511 H   0  0  0  0  0  0  0  0  0  0  0  0
  -18.4132   15.8366   27.8436 H   0  0  0  0  0  0  0  0  0  0  0  0
  -22.1893   16.6354   28.0543 H   0  0  0  0  0  0  0  0  0  0  0  0
  -22.2605   15.2916   29.2466 H   0  0  0  0  0  0  0  0  0  0  0  0
  -21.4288   13.6894   27.6726 H   0  0  0  0  0  0  0  0  0  0  0  0
  -22.6627   14.6531   26.7693 H   0  0  0  0  0  0  0  0  0  0  0  0
  -19.2796   14.1043   32.4964 H   0  0  0  0  0  0  0  0  0  0  0  0
  -17.6383   12.0640   31.9789 H   0  0  0  0  0  0  0  0  0  0  0  0
  -17.0818   12.1878   29.3770 H   0  0  0  0  0  0  0  0  0  0  0  0
  1  2  1  0
  2  3  2  0
  2  4  1  0
  4  5  1  0
  5  6  1  0
  6  7  1  0
  7  8  1  0
  8  9  1  0
  7 10  1  0
 10 11  2  0
 10 12  1  0
 12 13  2  0
 13 14  1  0
 14 15  2  0
 15 16  1  0
  9  4  1  0
 16 12  1  0
  1 17  1  0
  1 18  1  0
  5 19  1  0
  5 20  1  0
  6 21  1  0
  6 22  1  0
  8 23  1  0
  8 24  1  0
  9 25  1  0
  9 26  1  0
 13 27  1  0
 14 28  1  0
 15 29  1  0
M  END
>  <CHROM.1>  (1) 
-160.02712747,-2.10101830,-0.90439008,1.32627655

>  <Name>  (1) 
F709

>  <RI>  (1) 
1.44884e+07

>  <Rbt.Current_Directory>  (1) 
/data/out

>  <Rbt.Executable>  (1) 
rbdock ($Id: //depot/dev/client3/rdock/2013.1/src/exe/rbdock.cxx#4 $)

>  <Rbt.Library>  (1) 
libRbt.so (2013.1, Build901 2013/11/27)

>  <Rbt.Parameter_File>  (1) 
/python_libraries/phenodiscovery/docking/templates/RDOCK_TETHER.conf

>  <Rbt.Receptor>  (1) 
/data/out/rdock-opt/grid/rdock-grid.prm

>  <SCORE>  (1) 
-5.6887

>  <SCORE.INTER>  (1) 
-6.72182

>  <SCORE.INTER.CONST>  (1) 
1

>  <SCORE.INTER.POLAR>  (1) 
-0.679515

>  <SCORE.INTER.REPUL>  (1) 
0

>  <SCORE.INTER.ROT>  (1) 
1

>  <SCORE.INTER.VDW>  (1) 
-10.8115

>  <SCORE.INTER.norm>  (1) 
-0.420114

>  <SCORE.INTRA>  (1) 
1.03313

>  <SCORE.INTRA.DIHEDRAL>  (1) 
1.13082

>  <SCORE.INTRA.DIHEDRAL.0>  (1) 
0.148555

>  <SCORE.INTRA.POLAR>  (1) 
0

>  <SCORE.INTRA.POLAR.0>  (1) 
0

>  <SCORE.INTRA.REPUL>  (1) 
0

>  <SCORE.INTRA.REPUL.0>  (1) 
0

>  <SCORE.INTRA.VDW>  (1) 
0.467718

>  <SCORE.INTRA.VDW.0>  (1) 
-1.35245

>  <SCORE.INTRA.norm>  (1) 
0.0645705

>  <SCORE.RESTR>  (1) 
0

>  <SCORE.RESTR.CAVITY>  (1) 
0

>  <SCORE.RESTR.norm>  (1) 
0

>  <SCORE.SYSTEM>  (1) 
0

>  <SCORE.SYSTEM.CONST>  (1) 
0

>  <SCORE.SYSTEM.DIHEDRAL>  (1) 
0

>  <SCORE.SYSTEM.norm>  (1) 
0

>  <SCORE.heavy>  (1) 
16

>  <SCORE.norm>  (1) 
-0.355544

>  <TETHERED ATOMS>  (1) 
2,4,9,6,3,7,10,12,16,15,14,13

>  <skeledock_score>  (1) 
37

$$$$
