F529
     RDKit          3D

 23 23  0  0  0  0  0  0  0  0999 V2000
  -20.6498   17.5426   28.5922 C   0  0  0  0  0  0  0  0  0  0  0  0
  -20.3574   16.1205   28.4374 N   0  0  0  0  0  0  0  0  0  0  0  0
  -21.3669   15.0916   28.5197 C   0  0  0  0  0  0  0  0  0  0  0  0
  -22.6881   15.4259   28.8830 C   0  0  0  0  0  0  0  0  0  0  0  0
  -23.6673   14.4408   29.0085 C   0  0  0  0  0  0  0  0  0  0  0  0
  -23.3493   13.1067   28.7747 C   0  0  0  0  0  0  0  0  0  0  0  0
  -22.0538   12.7527   28.4005 C   0  0  0  0  0  0  0  0  0  0  0  0
  -21.0533   13.7305   28.2550 C   0  0  0  0  0  0  0  0  0  0  0  0
  -19.4439   13.2307   27.7024 S   0  0  0  0  0  0  0  0  0  0  0  0
  -18.8035   12.3668   28.7512 O   0  0  0  0  0  0  0  0  0  0  0  0
  -18.5955   14.4485   27.4640 O   0  0  0  0  0  0  0  0  0  0  0  0
  -19.5001   12.3123   26.1754 C   0  0  0  0  0  0  0  0  0  0  0  0
  -19.7351   18.1392   28.3902 H   0  0  0  0  0  0  0  0  0  0  0  0
  -20.9795   17.7531   29.6308 H   0  0  0  0  0  0  0  0  0  0  0  0
  -21.4382   17.8473   27.8720 H   0  0  0  0  0  0  0  0  0  0  0  0
  -19.3624   15.8657   28.2564 H   0  0  0  0  0  0  0  0  0  0  0  0
  -22.9703   16.4489   29.0882 H   0  0  0  0  0  0  0  0  0  0  0  0
  -24.6750   14.7132   29.2954 H   0  0  0  0  0  0  0  0  0  0  0  0
  -24.1101   12.3437   28.8787 H   0  0  0  0  0  0  0  0  0  0  0  0
  -21.8428   11.7087   28.2202 H   0  0  0  0  0  0  0  0  0  0  0  0
  -18.4659   12.1295   25.8173 H   0  0  0  0  0  0  0  0  0  0  0  0
  -20.0006   11.3360   26.3408 H   0  0  0  0  0  0  0  0  0  0  0  0
  -20.0527   12.8934   25.4086 H   0  0  0  0  0  0  0  0  0  0  0  0
  1  2  1  0
  2  3  1  0
  3  4  2  0
  4  5  1  0
  5  6  2  0
  6  7  1  0
  7  8  2  0
  8  9  1  0
  9 10  2  0
  9 11  2  0
  9 12  1  0
  3  8  1  0
  1 13  1  0
  1 14  1  0
  1 15  1  0
  2 16  1  0
  4 17  1  0
  5 18  1  0
  6 19  1  0
  7 20  1  0
 12 21  1  0
 12 22  1  0
 12 23  1  0
M  END
>  <CHROM.1>  (1) 
-5.91693993,115.08354650,-2.10461793,-0.15160668,-3.09907081

>  <Name>  (1) 
F529

>  <RI>  (1) 
2.74439e+07

>  <Rbt.Current_Directory>  (1) 
/data/out

>  <Rbt.Executable>  (1) 
rbdock ($Id: //depot/dev/client3/rdock/2013.1/src/exe/rbdock.cxx#4 $)

>  <Rbt.Library>  (1) 
libRbt.so (2013.1, Build901 2013/11/27)

>  <Rbt.Parameter_File>  (1) 
/python_libraries/phenodiscovery/docking/templates/RDOCK_TETHER.conf

>  <Rbt.Receptor>  (1) 
/data/out/rdock-opt/grid/rdock-grid.prm

>  <SCORE>  (1) 
-1.13327

>  <SCORE.INTER>  (1) 
1.15885

>  <SCORE.INTER.CONST>  (1) 
1

>  <SCORE.INTER.POLAR>  (1) 
0

>  <SCORE.INTER.REPUL>  (1) 
0

>  <SCORE.INTER.ROT>  (1) 
2

>  <SCORE.INTER.VDW>  (1) 
-6.24115

>  <SCORE.INTER.norm>  (1) 
0.0965709

>  <SCORE.INTRA>  (1) 
-2.29212

>  <SCORE.INTRA.DIHEDRAL>  (1) 
-0.905246

>  <SCORE.INTRA.DIHEDRAL.0>  (1) 
2.23583

>  <SCORE.INTRA.POLAR>  (1) 
-0.475484

>  <SCORE.INTRA.POLAR.0>  (1) 
0

>  <SCORE.INTRA.REPUL>  (1) 
0

>  <SCORE.INTRA.REPUL.0>  (1) 
0

>  <SCORE.INTRA.VDW>  (1) 
-0.222849

>  <SCORE.INTRA.VDW.0>  (1) 
-0.502688

>  <SCORE.INTRA.norm>  (1) 
-0.19101

>  <SCORE.RESTR>  (1) 
0

>  <SCORE.RESTR.CAVITY>  (1) 
0

>  <SCORE.RESTR.norm>  (1) 
0

>  <SCORE.SYSTEM>  (1) 
0

>  <SCORE.SYSTEM.CONST>  (1) 
0

>  <SCORE.SYSTEM.DIHEDRAL>  (1) 
0

>  <SCORE.SYSTEM.norm>  (1) 
0

>  <SCORE.heavy>  (1) 
12

>  <SCORE.norm>  (1) 
-0.0944388

>  <TETHERED ATOMS>  (1) 
1,2,3,8,9,10,4

>  <skeledock_score>  (1) 
21

$$$$
