F389
     RDKit          3D

 18 18  0  0  0  0  0  0  0  0999 V2000
  -17.9819   11.6348   23.0731 C   0  0  0  0  0  0  0  0  0  0  0  0
  -17.8198   11.4658   24.5739 C   0  0  0  0  0  0  0  0  0  0  0  0
  -18.3361   12.6142   25.2354 O   0  0  0  0  0  0  0  0  0  0  0  0
  -18.4379   12.7015   26.6246 C   0  0  0  0  0  0  0  0  0  0  0  0
  -18.1888   11.7007   27.3510 O   0  0  0  0  0  0  0  0  0  0  0  0
  -18.8098   13.9774   27.2406 C   0  0  0  0  0  0  0  0  0  0  0  0
  -18.6655   15.2384   26.6992 C   0  0  0  0  0  0  0  0  0  0  0  0
  -19.1801   16.1432   27.5541 N   0  0  0  0  0  0  0  0  0  0  0  0
  -19.6377   15.4896   28.6108 N   0  0  0  0  0  0  0  0  0  0  0  0
  -19.4319   14.1705   28.4548 C   0  0  0  0  0  0  0  0  0  0  0  0
  -19.0569   11.7486   22.8181 H   0  0  0  0  0  0  0  0  0  0  0  0
  -17.4283   12.5345   22.7303 H   0  0  0  0  0  0  0  0  0  0  0  0
  -17.5795   10.7421   22.5496 H   0  0  0  0  0  0  0  0  0  0  0  0
  -18.3702   10.5598   24.9083 H   0  0  0  0  0  0  0  0  0  0  0  0
  -16.7403   11.3476   24.8122 H   0  0  0  0  0  0  0  0  0  0  0  0
  -18.2278   15.4843   25.7406 H   0  0  0  0  0  0  0  0  0  0  0  0
  -20.0938   15.9464   29.4312 H   0  0  0  0  0  0  0  0  0  0  0  0
  -19.7245   13.4101   29.1674 H   0  0  0  0  0  0  0  0  0  0  0  0
  1  2  1  0
  2  3  1  0
  3  4  1  0
  4  5  2  0
  4  6  1  0
  6  7  1  0
  7  8  2  0
  8  9  1  0
  9 10  1  0
  6 10  2  0
  1 11  1  0
  1 12  1  0
  1 13  1  0
  2 14  1  0
  2 15  1  0
  7 16  1  0
  9 17  1  0
 10 18  1  0
M  END
>  <CHROM.1>  (1) 
174.07351407,-6.81696023,-23.09623184,-0.36080937,1.30963989,-0.37288141

>  <Name>  (1) 
F389

>  <RI>  (1) 
2.6653e+07

>  <Rbt.Current_Directory>  (1) 
/data/out

>  <Rbt.Executable>  (1) 
rbdock ($Id: //depot/dev/client3/rdock/2013.1/src/exe/rbdock.cxx#4 $)

>  <Rbt.Library>  (1) 
libRbt.so (2013.1, Build901 2013/11/27)

>  <Rbt.Parameter_File>  (1) 
/python_libraries/phenodiscovery/docking/templates/RDOCK_TETHER.conf

>  <Rbt.Receptor>  (1) 
/data/out/rdock-opt/grid/rdock-grid.prm

>  <SCORE>  (1) 
0.319116

>  <SCORE.INTER>  (1) 
-0.841277

>  <SCORE.INTER.CONST>  (1) 
1

>  <SCORE.INTER.POLAR>  (1) 
-0.595173

>  <SCORE.INTER.REPUL>  (1) 
0

>  <SCORE.INTER.ROT>  (1) 
3

>  <SCORE.INTER.VDW>  (1) 
-7.21769

>  <SCORE.INTER.norm>  (1) 
-0.0841277

>  <SCORE.INTRA>  (1) 
1.16039

>  <SCORE.INTRA.DIHEDRAL>  (1) 
2.41021

>  <SCORE.INTRA.DIHEDRAL.0>  (1) 
0.263915

>  <SCORE.INTRA.POLAR>  (1) 
0

>  <SCORE.INTRA.POLAR.0>  (1) 
0

>  <SCORE.INTRA.REPUL>  (1) 
0

>  <SCORE.INTRA.REPUL.0>  (1) 
0

>  <SCORE.INTRA.VDW>  (1) 
-0.0447143

>  <SCORE.INTRA.VDW.0>  (1) 
-0.903036

>  <SCORE.INTRA.norm>  (1) 
0.116039

>  <SCORE.RESTR>  (1) 
0

>  <SCORE.RESTR.CAVITY>  (1) 
0

>  <SCORE.RESTR.norm>  (1) 
0

>  <SCORE.SYSTEM>  (1) 
0

>  <SCORE.SYSTEM.CONST>  (1) 
0

>  <SCORE.SYSTEM.DIHEDRAL>  (1) 
0

>  <SCORE.SYSTEM.norm>  (1) 
0

>  <SCORE.heavy>  (1) 
10

>  <SCORE.norm>  (1) 
0.0319116

>  <TETHERED ATOMS>  (1) 
1,2,3,4,6,10,9,8,7

>  <skeledock_score>  (1) 
41

$$$$
