F96
     RDKit          3D

 19 19  0  0  0  0  0  0  0  0999 V2000
  -14.3667   14.1581   22.4200 C   0  0  0  0  0  0  0  0  0  0  0  0
  -15.3255   13.3649   23.2462 C   0  0  0  0  0  0  0  0  0  0  0  0
  -14.9375   12.3044   23.8074 O   0  0  0  0  0  0  0  0  0  0  0  0
  -16.6791   13.8133   23.3972 N   0  0  0  0  0  0  0  0  0  0  0  0
  -17.6644   13.0798   24.1880 C   0  0  0  0  0  0  0  0  0  0  0  0
  -18.1553   13.9247   25.3223 C   0  0  0  0  0  0  0  0  0  0  0  0
  -17.5815   15.0807   25.8129 C   0  0  0  0  0  0  0  0  0  0  0  0
  -18.3267   15.5394   26.8376 N   0  0  0  0  0  0  0  0  0  0  0  0
  -19.3451   14.7091   27.0022 N   0  0  0  0  0  0  0  0  0  0  0  0
  -19.2734   13.7154   26.0993 C   0  0  0  0  0  0  0  0  0  0  0  0
  -13.3671   13.6739   22.4066 H   0  0  0  0  0  0  0  0  0  0  0  0
  -14.2669   15.1788   22.8446 H   0  0  0  0  0  0  0  0  0  0  0  0
  -14.7458   14.2304   21.3794 H   0  0  0  0  0  0  0  0  0  0  0  0
  -16.9641   14.7185   22.9593 H   0  0  0  0  0  0  0  0  0  0  0  0
  -17.1976   12.1612   24.6037 H   0  0  0  0  0  0  0  0  0  0  0  0
  -18.5109   12.7699   23.5377 H   0  0  0  0  0  0  0  0  0  0  0  0
  -16.6814   15.5579   25.4486 H   0  0  0  0  0  0  0  0  0  0  0  0
  -20.0845   14.8241   27.7299 H   0  0  0  0  0  0  0  0  0  0  0  0
  -19.9834   12.9031   26.0149 H   0  0  0  0  0  0  0  0  0  0  0  0
  1  2  1  0
  2  3  2  0
  2  4  1  0
  4  5  1  0
  5  6  1  0
  6  7  1  0
  7  8  2  0
  8  9  1  0
  9 10  1  0
  6 10  2  0
  1 11  1  0
  1 12  1  0
  1 13  1  0
  4 14  1  0
  5 15  1  0
  5 16  1  0
  7 17  1  0
  9 18  1  0
 10 19  1  0
M  END
>  <CHROM.1>  (1) 
118.62860075,-15.50912826,-1.32758803,0.57693824,0.70310297

>  <Name>  (1) 
F96

>  <RI>  (1) 
3.00711e+07

>  <Rbt.Current_Directory>  (1) 
/data/out

>  <Rbt.Executable>  (1) 
rbdock ($Id: //depot/dev/client3/rdock/2013.1/src/exe/rbdock.cxx#4 $)

>  <Rbt.Library>  (1) 
libRbt.so (2013.1, Build901 2013/11/27)

>  <Rbt.Parameter_File>  (1) 
/python_libraries/phenodiscovery/docking/templates/RDOCK_TETHER.conf

>  <Rbt.Receptor>  (1) 
/data/out/rdock-opt/grid/rdock-grid.prm

>  <SCORE>  (1) 
-1.2157

>  <SCORE.INTER>  (1) 
-2.15197

>  <SCORE.INTER.CONST>  (1) 
1

>  <SCORE.INTER.POLAR>  (1) 
-0.00196222

>  <SCORE.INTER.REPUL>  (1) 
0.156654

>  <SCORE.INTER.ROT>  (1) 
2

>  <SCORE.INTER.VDW>  (1) 
-10.3286

>  <SCORE.INTER.norm>  (1) 
-0.215197

>  <SCORE.INTRA>  (1) 
0.936268

>  <SCORE.INTRA.DIHEDRAL>  (1) 
-0.0283425

>  <SCORE.INTRA.DIHEDRAL.0>  (1) 
2.57662

>  <SCORE.INTRA.POLAR>  (1) 
0

>  <SCORE.INTRA.POLAR.0>  (1) 
0

>  <SCORE.INTRA.REPUL>  (1) 
0

>  <SCORE.INTRA.REPUL.0>  (1) 
0

>  <SCORE.INTRA.VDW>  (1) 
0.950439

>  <SCORE.INTRA.VDW.0>  (1) 
-1.45088

>  <SCORE.INTRA.norm>  (1) 
0.0936268

>  <SCORE.RESTR>  (1) 
0

>  <SCORE.RESTR.CAVITY>  (1) 
0

>  <SCORE.RESTR.norm>  (1) 
0

>  <SCORE.SYSTEM>  (1) 
0

>  <SCORE.SYSTEM.CONST>  (1) 
0

>  <SCORE.SYSTEM.DIHEDRAL>  (1) 
0

>  <SCORE.SYSTEM.norm>  (1) 
0

>  <SCORE.heavy>  (1) 
10

>  <SCORE.norm>  (1) 
-0.12157

>  <TETHERED ATOMS>  (1) 
6,10,9,8,7

>  <skeledock_score>  (1) 
25

$$$$
