F603
     RDKit          3D

 24 25  0  0  0  0  0  0  0  0999 V2000
  -24.4359   14.1080   28.2857 C   0  0  0  0  0  0  0  0  0  0  0  0
  -23.2732   14.1178   29.6336 S   0  0  0  0  0  0  0  0  0  0  0  0
  -23.9919   13.7888   30.9119 O   0  0  0  0  0  0  0  0  0  0  0  0
  -22.6700   15.4893   29.7470 O   0  0  0  0  0  0  0  0  0  0  0  0
  -21.9664   12.9327   29.3601 C   0  0  0  0  0  0  0  0  0  0  0  0
  -21.0044   13.4311   28.3289 C   0  0  0  0  0  0  0  0  0  0  0  0
  -21.3788   13.7421   27.0591 N   0  0  0  0  0  0  0  0  0  0  0  0
  -20.2185   14.1259   26.4940 C   0  0  0  0  0  0  0  0  0  0  0  0
  -20.0043   14.5520   25.1843 C   0  0  0  0  0  0  0  0  0  0  0  0
  -18.6887   14.8941   24.8140 C   0  0  0  0  0  0  0  0  0  0  0  0
  -17.6338   14.8015   25.7516 C   0  0  0  0  0  0  0  0  0  0  0  0
  -17.8861   14.3669   27.0666 C   0  0  0  0  0  0  0  0  0  0  0  0
  -19.1997   14.0394   27.3952 C   0  0  0  0  0  0  0  0  0  0  0  0
  -19.6792   13.5987   28.5640 N   0  0  0  0  0  0  0  0  0  0  0  0
  -23.8903   14.1853   27.3227 H   0  0  0  0  0  0  0  0  0  0  0  0
  -25.0247   13.1682   28.3050 H   0  0  0  0  0  0  0  0  0  0  0  0
  -25.1271   14.9699   28.3869 H   0  0  0  0  0  0  0  0  0  0  0  0
  -22.4212   11.9802   29.0149 H   0  0  0  0  0  0  0  0  0  0  0  0
  -21.4292   12.7398   30.3122 H   0  0  0  0  0  0  0  0  0  0  0  0
  -20.8193   14.6161   24.4750 H   0  0  0  0  0  0  0  0  0  0  0  0
  -18.4840   15.2287   23.8055 H   0  0  0  0  0  0  0  0  0  0  0  0
  -16.6267   15.0655   25.4566 H   0  0  0  0  0  0  0  0  0  0  0  0
  -17.0886   14.2894   27.7941 H   0  0  0  0  0  0  0  0  0  0  0  0
  -19.1505   13.4112   29.4449 H   0  0  0  0  0  0  0  0  0  0  0  0
  1  2  1  0
  2  3  2  0
  2  4  2  0
  2  5  1  0
  5  6  1  0
  6  7  2  0
  7  8  1  0
  8  9  2  0
  9 10  1  0
 10 11  2  0
 11 12  1  0
 12 13  2  0
 13 14  1  0
 14  6  1  0
  8 13  1  0
  1 15  1  0
  1 16  1  0
  1 17  1  0
  5 18  1  0
  5 19  1  0
  9 20  1  0
 10 21  1  0
 11 22  1  0
 12 23  1  0
 14 24  1  0
M  END
>  <CHROM.1>  (1) 
74.89300673,-59.10495657,2.28950932,0.16953832,1.86087944

>  <Name>  (1) 
F603

>  <RI>  (1) 
3.85882e+07

>  <Rbt.Current_Directory>  (1) 
/data/out

>  <Rbt.Executable>  (1) 
rbdock ($Id: //depot/dev/client3/rdock/2013.1/src/exe/rbdock.cxx#4 $)

>  <Rbt.Library>  (1) 
libRbt.so (2013.1, Build901 2013/11/27)

>  <Rbt.Parameter_File>  (1) 
/python_libraries/phenodiscovery/docking/templates/RDOCK_TETHER.conf

>  <Rbt.Receptor>  (1) 
/data/out/rdock-opt/grid/rdock-grid.prm

>  <SCORE>  (1) 
-3.24267

>  <SCORE.INTER>  (1) 
-3.94216

>  <SCORE.INTER.CONST>  (1) 
1

>  <SCORE.INTER.POLAR>  (1) 
-0.488785

>  <SCORE.INTER.REPUL>  (1) 
0.091657

>  <SCORE.INTER.ROT>  (1) 
2

>  <SCORE.INTER.VDW>  (1) 
-10.1386

>  <SCORE.INTER.norm>  (1) 
-0.281583

>  <SCORE.INTRA>  (1) 
0.699491

>  <SCORE.INTRA.DIHEDRAL>  (1) 
0.510071

>  <SCORE.INTRA.DIHEDRAL.0>  (1) 
1.39099

>  <SCORE.INTRA.POLAR>  (1) 
0

>  <SCORE.INTRA.POLAR.0>  (1) 
0

>  <SCORE.INTRA.REPUL>  (1) 
0

>  <SCORE.INTRA.REPUL.0>  (1) 
0

>  <SCORE.INTRA.VDW>  (1) 
0.444456

>  <SCORE.INTRA.VDW.0>  (1) 
-2.24023

>  <SCORE.INTRA.norm>  (1) 
0.0499637

>  <SCORE.RESTR>  (1) 
0

>  <SCORE.RESTR.CAVITY>  (1) 
0

>  <SCORE.RESTR.norm>  (1) 
0

>  <SCORE.SYSTEM>  (1) 
0

>  <SCORE.SYSTEM.CONST>  (1) 
0

>  <SCORE.SYSTEM.DIHEDRAL>  (1) 
0

>  <SCORE.SYSTEM.norm>  (1) 
0

>  <SCORE.heavy>  (1) 
14

>  <SCORE.norm>  (1) 
-0.231619

>  <TETHERED ATOMS>  (1) 
8,9,10,11,12,13,6,14,7

>  <skeledock_score>  (1) 
49

$$$$
