F229
     RDKit          3D

 27 28  0  0  0  0  0  0  0  0999 V2000
  -19.0563   14.8418   24.7124 C   0  0  0  0  0  0  0  0  0  0  0  0
  -19.8055   13.5513   24.7842 C   0  0  0  0  0  0  0  0  0  0  0  0
  -20.6051   13.0883   23.8036 N   0  0  0  0  0  0  0  0  0  0  0  0
  -21.1168   11.9384   24.2155 N   0  0  0  0  0  0  0  0  0  0  0  0
  -20.6630   11.6510   25.4493 C   0  0  0  0  0  0  0  0  0  0  0  0
  -19.8081   12.6589   25.8411 C   0  0  0  0  0  0  0  0  0  0  0  0
  -19.1283   12.8044   27.1698 C   0  0  0  0  0  0  0  0  0  0  0  0
  -20.0726   13.2899   28.1765 N   0  0  0  0  0  0  0  0  0  0  0  0
  -19.8270   14.4396   29.0087 C   0  0  0  0  0  0  0  0  0  0  0  0
  -20.8285   15.4001   29.2581 C   0  0  0  0  0  0  0  0  0  0  0  0
  -20.5546   16.5156   30.0558 C   0  0  0  0  0  0  0  0  0  0  0  0
  -19.2859   16.6853   30.6132 C   0  0  0  0  0  0  0  0  0  0  0  0
  -18.2881   15.7383   30.3776 C   0  0  0  0  0  0  0  0  0  0  0  0
  -18.5537   14.6201   29.5820 C   0  0  0  0  0  0  0  0  0  0  0  0
  -17.5643   13.7168   29.3662 F   0  0  0  0  0  0  0  0  0  0  0  0
  -17.9676   14.6471   24.8046 H   0  0  0  0  0  0  0  0  0  0  0  0
  -19.2518   15.3455   23.7425 H   0  0  0  0  0  0  0  0  0  0  0  0
  -19.3811   15.5097   25.5372 H   0  0  0  0  0  0  0  0  0  0  0  0
  -21.7815   11.3590   23.6571 H   0  0  0  0  0  0  0  0  0  0  0  0
  -20.9446   10.7776   26.0230 H   0  0  0  0  0  0  0  0  0  0  0  0
  -18.7224   11.8189   27.4845 H   0  0  0  0  0  0  0  0  0  0  0  0
  -18.2872   13.5231   27.0705 H   0  0  0  0  0  0  0  0  0  0  0  0
  -20.9652   12.7622   28.3157 H   0  0  0  0  0  0  0  0  0  0  0  0
  -21.8200   15.2968   28.8394 H   0  0  0  0  0  0  0  0  0  0  0  0
  -21.3279   17.2501   30.2413 H   0  0  0  0  0  0  0  0  0  0  0  0
  -19.0767   17.5502   31.2294 H   0  0  0  0  0  0  0  0  0  0  0  0
  -17.3059   15.8720   30.8126 H   0  0  0  0  0  0  0  0  0  0  0  0
  1  2  1  0
  2  3  2  0
  3  4  1  0
  4  5  1  0
  5  6  2  0
  6  7  1  0
  7  8  1  0
  8  9  1  0
  9 10  2  0
 10 11  1  0
 11 12  2  0
 12 13  1  0
 13 14  2  0
 14 15  1  0
  6  2  1  0
  9 14  1  0
  1 16  1  0
  1 17  1  0
  1 18  1  0
  4 19  1  0
  5 20  1  0
  7 21  1  0
  7 22  1  0
  8 23  1  0
 10 24  1  0
 11 25  1  0
 12 26  1  0
 13 27  1  0
M  END
>  <CHROM.1>  (1) 
97.65169717,-127.33719357,136.69175569,-1.51719242,0.56464335,-2.21772005

>  <Name>  (1) 
F229

>  <RI>  (1) 
3.65565e+07

>  <Rbt.Current_Directory>  (1) 
/data/out

>  <Rbt.Executable>  (1) 
rbdock ($Id: //depot/dev/client3/rdock/2013.1/src/exe/rbdock.cxx#4 $)

>  <Rbt.Library>  (1) 
libRbt.so (2013.1, Build901 2013/11/27)

>  <Rbt.Parameter_File>  (1) 
/python_libraries/phenodiscovery/docking/templates/RDOCK_TETHER.conf

>  <Rbt.Receptor>  (1) 
/data/out/rdock-opt/grid/rdock-grid.prm

>  <SCORE>  (1) 
-2.06105

>  <SCORE.INTER>  (1) 
-4.96273

>  <SCORE.INTER.CONST>  (1) 
1

>  <SCORE.INTER.POLAR>  (1) 
-0.637504

>  <SCORE.INTER.REPUL>  (1) 
0

>  <SCORE.INTER.ROT>  (1) 
3

>  <SCORE.INTER.VDW>  (1) 
-11.1952

>  <SCORE.INTER.norm>  (1) 
-0.330849

>  <SCORE.INTRA>  (1) 
2.90168

>  <SCORE.INTRA.DIHEDRAL>  (1) 
6.1714

>  <SCORE.INTRA.DIHEDRAL.0>  (1) 
3.89976

>  <SCORE.INTRA.POLAR>  (1) 
0

>  <SCORE.INTRA.POLAR.0>  (1) 
0

>  <SCORE.INTRA.REPUL>  (1) 
0

>  <SCORE.INTRA.REPUL.0>  (1) 
0

>  <SCORE.INTRA.VDW>  (1) 
-0.184017

>  <SCORE.INTRA.VDW.0>  (1) 
-1.17894

>  <SCORE.INTRA.norm>  (1) 
0.193445

>  <SCORE.RESTR>  (1) 
0

>  <SCORE.RESTR.CAVITY>  (1) 
0

>  <SCORE.RESTR.norm>  (1) 
0

>  <SCORE.SYSTEM>  (1) 
0

>  <SCORE.SYSTEM.CONST>  (1) 
0

>  <SCORE.SYSTEM.DIHEDRAL>  (1) 
0

>  <SCORE.SYSTEM.norm>  (1) 
0

>  <SCORE.heavy>  (1) 
15

>  <SCORE.norm>  (1) 
-0.137403

>  <TETHERED ATOMS>  (1) 
9,14,13,12,10,11,2,6,7,8

>  <skeledock_score>  (1) 
45

$$$$
