F650
     RDKit          3D

 23 24  0  0  0  0  0  0  0  0999 V2000
  -21.1258   16.6154   26.2772 O   0  0  0  0  0  0  0  0  0  0  0  0
  -20.9098   15.4800   26.7815 C   0  0  0  0  0  0  0  0  0  0  0  0
  -19.6877   14.7880   26.4603 N   0  0  0  0  0  0  0  0  0  0  0  0
  -18.7910   15.2500   25.4128 C   0  0  0  0  0  0  0  0  0  0  0  0
  -17.5726   14.3406   25.4822 C   0  0  0  0  0  0  0  0  0  0  0  0
  -17.6149   13.7102   26.8694 C   0  0  0  0  0  0  0  0  0  0  0  0
  -19.0745   13.7684   27.2979 C   0  0  0  0  0  0  0  0  0  0  0  0
  -21.9180   14.9195   27.7024 C   0  0  0  0  0  0  0  0  0  0  0  0
  -22.2240   13.5923   27.9481 C   0  0  0  0  0  0  0  0  0  0  0  0
  -23.2595   13.5296   28.8080 N   0  0  0  0  0  0  0  0  0  0  0  0
  -23.6161   14.7685   29.1058 N   0  0  0  0  0  0  0  0  0  0  0  0
  -22.8330   15.6375   28.4447 C   0  0  0  0  0  0  0  0  0  0  0  0
  -19.2849   15.1748   24.4200 H   0  0  0  0  0  0  0  0  0  0  0  0
  -18.4934   16.3033   25.6096 H   0  0  0  0  0  0  0  0  0  0  0  0
  -16.6303   14.9082   25.3225 H   0  0  0  0  0  0  0  0  0  0  0  0
  -17.6573   13.5439   24.7104 H   0  0  0  0  0  0  0  0  0  0  0  0
  -16.9966   14.3147   27.5693 H   0  0  0  0  0  0  0  0  0  0  0  0
  -17.2348   12.6656   26.8527 H   0  0  0  0  0  0  0  0  0  0  0  0
  -19.5522   12.7859   27.1067 H   0  0  0  0  0  0  0  0  0  0  0  0
  -19.1555   14.0379   28.3737 H   0  0  0  0  0  0  0  0  0  0  0  0
  -21.7664   12.7235   27.5003 H   0  0  0  0  0  0  0  0  0  0  0  0
  -24.3998   15.0154   29.7495 H   0  0  0  0  0  0  0  0  0  0  0  0
  -22.9255   16.7145   28.4984 H   0  0  0  0  0  0  0  0  0  0  0  0
  1  2  2  0
  2  3  1  0
  3  4  1  0
  4  5  1  0
  5  6  1  0
  6  7  1  0
  2  8  1  0
  8  9  1  0
  9 10  2  0
 10 11  1  0
 11 12  1  0
  7  3  1  0
  8 12  2  0
  4 13  1  0
  4 14  1  0
  5 15  1  0
  5 16  1  0
  6 17  1  0
  6 18  1  0
  7 19  1  0
  7 20  1  0
  9 21  1  0
 11 22  1  0
 12 23  1  0
M  END
>  <CHROM.1>  (1) 
150.85809361,3.03609041,0.41839246,-0.93065509

>  <Name>  (1) 
F650

>  <RI>  (1) 
2.53976e+07

>  <Rbt.Current_Directory>  (1) 
/data/out

>  <Rbt.Executable>  (1) 
rbdock ($Id: //depot/dev/client3/rdock/2013.1/src/exe/rbdock.cxx#4 $)

>  <Rbt.Library>  (1) 
libRbt.so (2013.1, Build901 2013/11/27)

>  <Rbt.Parameter_File>  (1) 
/python_libraries/phenodiscovery/docking/templates/RDOCK_TETHER.conf

>  <Rbt.Receptor>  (1) 
/data/out/rdock-opt/grid/rdock-grid.prm

>  <SCORE>  (1) 
-1.67919

>  <SCORE.INTER>  (1) 
-1.67026

>  <SCORE.INTER.CONST>  (1) 
1

>  <SCORE.INTER.POLAR>  (1) 
0

>  <SCORE.INTER.REPUL>  (1) 
0

>  <SCORE.INTER.ROT>  (1) 
1

>  <SCORE.INTER.VDW>  (1) 
-8.07026

>  <SCORE.INTER.norm>  (1) 
-0.139188

>  <SCORE.INTRA>  (1) 
-0.00893195

>  <SCORE.INTRA.DIHEDRAL>  (1) 
0.0263092

>  <SCORE.INTRA.DIHEDRAL.0>  (1) 
2.37019

>  <SCORE.INTRA.POLAR>  (1) 
0

>  <SCORE.INTRA.POLAR.0>  (1) 
0

>  <SCORE.INTRA.REPUL>  (1) 
0

>  <SCORE.INTRA.REPUL.0>  (1) 
0

>  <SCORE.INTRA.VDW>  (1) 
-0.0220866

>  <SCORE.INTRA.VDW.0>  (1) 
-0.157159

>  <SCORE.INTRA.norm>  (1) 
-0.00074433

>  <SCORE.RESTR>  (1) 
0

>  <SCORE.RESTR.CAVITY>  (1) 
0

>  <SCORE.RESTR.norm>  (1) 
0

>  <SCORE.SYSTEM>  (1) 
0

>  <SCORE.SYSTEM.CONST>  (1) 
0

>  <SCORE.SYSTEM.DIHEDRAL>  (1) 
0

>  <SCORE.SYSTEM.norm>  (1) 
0

>  <SCORE.heavy>  (1) 
12

>  <SCORE.norm>  (1) 
-0.139933

>  <TETHERED ATOMS>  (1) 
3,2,6,7,5,4

>  <skeledock_score>  (1) 
38

$$$$
