F126
     RDKit          3D

 23 23  0  0  0  0  0  0  0  0999 V2000
  -19.8317   13.6615   28.4468 C   0  0  0  0  0  0  0  0  0  0  0  0
  -19.5652   14.2359   27.0517 C   0  0  0  0  0  0  0  0  0  0  0  0
  -20.8201   14.8978   26.4788 C   0  0  0  0  0  0  0  0  0  0  0  0
  -19.0647   13.1667   26.1197 C   0  0  0  0  0  0  0  0  0  0  0  0
  -19.6753   11.9544   26.0634 N   0  0  0  0  0  0  0  0  0  0  0  0
  -19.2320   10.9899   25.2192 C   0  0  0  0  0  0  0  0  0  0  0  0
  -18.1343   11.2285   24.3877 C   0  0  0  0  0  0  0  0  0  0  0  0
  -17.6059    9.9221   23.3306 Cl  0  0  0  0  0  0  0  0  0  0  0  0
  -17.5067   12.4948   24.4518 C   0  0  0  0  0  0  0  0  0  0  0  0
  -17.9983   13.4198   25.3191 N   0  0  0  0  0  0  0  0  0  0  0  0
  -16.3312   12.8720   23.6259 C   0  0  0  0  0  0  0  0  0  0  0  0
  -15.4467   13.6483   24.0737 O   0  0  0  0  0  0  0  0  0  0  0  0
  -16.1770   12.3499   22.3033 N   0  0  0  0  0  0  0  0  0  0  0  0
  -20.1385   14.4729   29.1407 H   0  0  0  0  0  0  0  0  0  0  0  0
  -18.9080   13.1921   28.8483 H   0  0  0  0  0  0  0  0  0  0  0  0
  -20.6381   12.8975   28.4132 H   0  0  0  0  0  0  0  0  0  0  0  0
  -18.7836   15.0221   27.1508 H   0  0  0  0  0  0  0  0  0  0  0  0
  -20.6020   15.3262   25.4769 H   0  0  0  0  0  0  0  0  0  0  0  0
  -21.6462   14.1606   26.3820 H   0  0  0  0  0  0  0  0  0  0  0  0
  -21.1539   15.7229   27.1436 H   0  0  0  0  0  0  0  0  0  0  0  0
  -19.7353   10.0322   25.1968 H   0  0  0  0  0  0  0  0  0  0  0  0
  -16.8844   11.7094   21.8804 H   0  0  0  0  0  0  0  0  0  0  0  0
  -15.3437   12.6134   21.7316 H   0  0  0  0  0  0  0  0  0  0  0  0
  1  2  1  0
  2  3  1  0
  2  4  1  0
  4  5  2  0
  5  6  1  0
  6  7  2  0
  7  8  1  0
  7  9  1  0
  9 10  2  0
  9 11  1  0
 11 12  2  0
 11 13  1  0
  4 10  1  0
  1 14  1  0
  1 15  1  0
  1 16  1  0
  2 17  1  0
  3 18  1  0
  3 19  1  0
  3 20  1  0
  6 21  1  0
 13 22  1  0
 13 23  1  0
M  END
>  <CHROM.1>  (1) 
46.17785933,-146.38891708,-2.78231485,-0.64082494,-3.08079853

>  <Name>  (1) 
F126

>  <RI>  (1) 
2.46419e+07

>  <Rbt.Current_Directory>  (1) 
/data/out

>  <Rbt.Executable>  (1) 
rbdock ($Id: //depot/dev/client3/rdock/2013.1/src/exe/rbdock.cxx#4 $)

>  <Rbt.Library>  (1) 
libRbt.so (2013.1, Build901 2013/11/27)

>  <Rbt.Parameter_File>  (1) 
/python_libraries/phenodiscovery/docking/templates/RDOCK_TETHER.conf

>  <Rbt.Receptor>  (1) 
/data/out/rdock-opt/grid/rdock-grid.prm

>  <SCORE>  (1) 
-0.84878

>  <SCORE.INTER>  (1) 
-2.91779

>  <SCORE.INTER.CONST>  (1) 
1

>  <SCORE.INTER.POLAR>  (1) 
0

>  <SCORE.INTER.REPUL>  (1) 
0.0646993

>  <SCORE.INTER.ROT>  (1) 
2

>  <SCORE.INTER.VDW>  (1) 
-10.6413

>  <SCORE.INTER.norm>  (1) 
-0.224446

>  <SCORE.INTRA>  (1) 
1.99958

>  <SCORE.INTRA.DIHEDRAL>  (1) 
3.75994

>  <SCORE.INTRA.DIHEDRAL.0>  (1) 
0.814154

>  <SCORE.INTRA.POLAR>  (1) 
0

>  <SCORE.INTRA.POLAR.0>  (1) 
0

>  <SCORE.INTRA.REPUL>  (1) 
0

>  <SCORE.INTRA.REPUL.0>  (1) 
0

>  <SCORE.INTRA.VDW>  (1) 
0.119616

>  <SCORE.INTRA.VDW.0>  (1) 
-1.21451

>  <SCORE.INTRA.norm>  (1) 
0.153814

>  <SCORE.RESTR>  (1) 
0.0694287

>  <SCORE.RESTR.CAVITY>  (1) 
0.0694287

>  <SCORE.RESTR.norm>  (1) 
0.00534067

>  <SCORE.SYSTEM>  (1) 
0

>  <SCORE.SYSTEM.CONST>  (1) 
0

>  <SCORE.SYSTEM.DIHEDRAL>  (1) 
0

>  <SCORE.SYSTEM.norm>  (1) 
0

>  <SCORE.heavy>  (1) 
13

>  <SCORE.norm>  (1) 
-0.0652908

>  <TETHERED ATOMS>  (1) 
3,2,4,10,9,5,11

>  <skeledock_score>  (1) 
25

$$$$
