F709
     RDKit          3D

 29 30  0  0  0  0  0  0  0  0999 V2000
  -18.7693   15.2553   31.4456 N   0  0  0  0  0  0  0  0  0  0  0  0
  -19.4099   15.9286   30.3602 C   0  0  0  0  0  0  0  0  0  0  0  0
  -19.9417   17.0536   30.5641 O   0  0  0  0  0  0  0  0  0  0  0  0
  -19.4777   15.3255   29.0561 N   0  0  0  0  0  0  0  0  0  0  0  0
  -19.7381   13.8818   28.9498 C   0  0  0  0  0  0  0  0  0  0  0  0
  -20.4199   13.5557   27.6237 C   0  0  0  0  0  0  0  0  0  0  0  0
  -19.6675   14.1775   26.5332 N   0  0  0  0  0  0  0  0  0  0  0  0
  -19.4838   15.6305   26.6036 C   0  0  0  0  0  0  0  0  0  0  0  0
  -18.8166   16.0030   27.9305 C   0  0  0  0  0  0  0  0  0  0  0  0
  -19.2682   13.4073   25.3835 C   0  0  0  0  0  0  0  0  0  0  0  0
  -19.9840   12.4432   25.0016 O   0  0  0  0  0  0  0  0  0  0  0  0
  -18.0366   13.7049   24.6343 C   0  0  0  0  0  0  0  0  0  0  0  0
  -17.6226   13.1128   23.4562 C   0  0  0  0  0  0  0  0  0  0  0  0
  -16.4347   13.7285   23.1270 C   0  0  0  0  0  0  0  0  0  0  0  0
  -16.1995   14.6598   24.1173 C   0  0  0  0  0  0  0  0  0  0  0  0
  -17.1730   14.6238   24.9977 O   0  0  0  0  0  0  0  0  0  0  0  0
  -18.4640   14.2612   31.3604 H   0  0  0  0  0  0  0  0  0  0  0  0
  -18.6807   15.7255   32.3737 H   0  0  0  0  0  0  0  0  0  0  0  0
  -18.7714   13.3356   29.0082 H   0  0  0  0  0  0  0  0  0  0  0  0
  -20.3815   13.5195   29.7774 H   0  0  0  0  0  0  0  0  0  0  0  0
  -21.4574   13.9553   27.6315 H   0  0  0  0  0  0  0  0  0  0  0  0
  -20.4718   12.4516   27.5030 H   0  0  0  0  0  0  0  0  0  0  0  0
  -20.4787   16.1230   26.5441 H   0  0  0  0  0  0  0  0  0  0  0  0
  -18.8767   16.0134   25.7572 H   0  0  0  0  0  0  0  0  0  0  0  0
  -18.8742   17.1068   28.0539 H   0  0  0  0  0  0  0  0  0  0  0  0
  -17.7455   15.7123   27.9113 H   0  0  0  0  0  0  0  0  0  0  0  0
  -18.1309   12.3489   22.8867 H   0  0  0  0  0  0  0  0  0  0  0  0
  -15.8180   13.5304   22.2607 H   0  0  0  0  0  0  0  0  0  0  0  0
  -15.3499   15.3271   24.1721 H   0  0  0  0  0  0  0  0  0  0  0  0
  1  2  1  0
  2  3  2  0
  2  4  1  0
  4  5  1  0
  5  6  1  0
  6  7  1  0
  7  8  1  0
  8  9  1  0
  7 10  1  0
 10 11  2  0
 10 12  1  0
 12 13  2  0
 13 14  1  0
 14 15  2  0
 15 16  1  0
  9  4  1  0
 16 12  1  0
  1 17  1  0
  1 18  1  0
  5 19  1  0
  5 20  1  0
  6 21  1  0
  6 22  1  0
  8 23  1  0
  8 24  1  0
  9 25  1  0
  9 26  1  0
 13 27  1  0
 14 28  1  0
 15 29  1  0
M  END
>  <CHROM.1>  (1) 
39.79228216,-173.77897893,1.82374324,0.62714023,1.07892289

>  <Name>  (1) 
F709

>  <RI>  (1) 
4.05541e+07

>  <Rbt.Current_Directory>  (1) 
/data/out

>  <Rbt.Executable>  (1) 
rbdock ($Id: //depot/dev/client3/rdock/2013.1/src/exe/rbdock.cxx#4 $)

>  <Rbt.Library>  (1) 
libRbt.so (2013.1, Build901 2013/11/27)

>  <Rbt.Parameter_File>  (1) 
/python_libraries/phenodiscovery/docking/templates/RDOCK_TETHER.conf

>  <Rbt.Receptor>  (1) 
/data/out/rdock-opt/grid/rdock-grid.prm

>  <SCORE>  (1) 
-2.92765

>  <SCORE.INTER>  (1) 
-1.91804

>  <SCORE.INTER.CONST>  (1) 
1

>  <SCORE.INTER.POLAR>  (1) 
0

>  <SCORE.INTER.REPUL>  (1) 
0

>  <SCORE.INTER.ROT>  (1) 
2

>  <SCORE.INTER.VDW>  (1) 
-9.31804

>  <SCORE.INTER.norm>  (1) 
-0.119877

>  <SCORE.INTRA>  (1) 
-1.00961

>  <SCORE.INTRA.DIHEDRAL>  (1) 
-2.40638

>  <SCORE.INTRA.DIHEDRAL.0>  (1) 
2.98617

>  <SCORE.INTRA.POLAR>  (1) 
0

>  <SCORE.INTRA.POLAR.0>  (1) 
0

>  <SCORE.INTRA.REPUL>  (1) 
0

>  <SCORE.INTRA.REPUL.0>  (1) 
0

>  <SCORE.INTRA.VDW>  (1) 
0.193581

>  <SCORE.INTRA.VDW.0>  (1) 
-1.29788

>  <SCORE.INTRA.norm>  (1) 
-0.0631006

>  <SCORE.RESTR>  (1) 
0

>  <SCORE.RESTR.CAVITY>  (1) 
0

>  <SCORE.RESTR.norm>  (1) 
0

>  <SCORE.SYSTEM>  (1) 
0

>  <SCORE.SYSTEM.CONST>  (1) 
0

>  <SCORE.SYSTEM.DIHEDRAL>  (1) 
0

>  <SCORE.SYSTEM.norm>  (1) 
0

>  <SCORE.heavy>  (1) 
16

>  <SCORE.norm>  (1) 
-0.182978

>  <TETHERED ATOMS>  (1) 
5,6,7,10,11,12,16,2,4

>  <skeledock_score>  (1) 
30

$$$$
