F535
     RDKit          3D

 22 23  0  0  0  0  0  0  0  0999 V2000
  -22.5129   14.3410   28.0373 C   0  0  0  0  0  0  0  0  0  0  0  0
  -21.2800   14.9164   28.5763 N   0  0  0  0  0  0  0  0  0  0  0  0
  -20.6915   15.8486   27.6101 C   0  0  0  0  0  0  0  0  0  0  0  0
  -20.3399   15.1258   26.3432 C   0  0  0  0  0  0  0  0  0  0  0  0
  -20.9097   15.3854   25.1443 N   0  0  0  0  0  0  0  0  0  0  0  0
  -20.3568   14.5705   24.2507 N   0  0  0  0  0  0  0  0  0  0  0  0
  -19.4585   13.8319   24.9259 C   0  0  0  0  0  0  0  0  0  0  0  0
  -18.6279   12.8467   24.4011 C   0  0  0  0  0  0  0  0  0  0  0  0
  -17.7496   12.2043   25.2887 C   0  0  0  0  0  0  0  0  0  0  0  0
  -17.7252   12.5603   26.6531 C   0  0  0  0  0  0  0  0  0  0  0  0
  -18.5890   13.5623   27.1228 C   0  0  0  0  0  0  0  0  0  0  0  0
  -19.4217   14.1510   26.2268 N   0  0  0  0  0  0  0  0  0  0  0  0
  -22.9443   13.6368   28.7798 H   0  0  0  0  0  0  0  0  0  0  0  0
  -22.3135   13.7822   27.0961 H   0  0  0  0  0  0  0  0  0  0  0  0
  -23.2615   15.1402   27.8475 H   0  0  0  0  0  0  0  0  0  0  0  0
  -20.6065   14.1270   28.7205 H   0  0  0  0  0  0  0  0  0  0  0  0
  -21.4125   16.6635   27.3727 H   0  0  0  0  0  0  0  0  0  0  0  0
  -19.7671   16.3045   28.0269 H   0  0  0  0  0  0  0  0  0  0  0  0
  -18.6546   12.5867   23.3508 H   0  0  0  0  0  0  0  0  0  0  0  0
  -17.0852   11.4324   24.9226 H   0  0  0  0  0  0  0  0  0  0  0  0
  -17.0455   12.0647   27.3337 H   0  0  0  0  0  0  0  0  0  0  0  0
  -18.5883   13.8546   28.1650 H   0  0  0  0  0  0  0  0  0  0  0  0
  1  2  1  0
  2  3  1  0
  3  4  1  0
  4  5  2  0
  5  6  1  0
  6  7  2  0
  7  8  1  0
  8  9  2  0
  9 10  1  0
 10 11  2  0
 11 12  1  0
 12  4  1  0
 12  7  1  0
  1 13  1  0
  1 14  1  0
  1 15  1  0
  2 16  1  0
  3 17  1  0
  3 18  1  0
  8 19  1  0
  9 20  1  0
 10 21  1  0
 11 22  1  0
M  END
>  <CHROM.1>  (1) 
-61.39090371,116.29164180,-2.99427270,0.66684955,-1.21513468

>  <Name>  (1) 
F535

>  <RI>  (1) 
4.05583e+07

>  <Rbt.Current_Directory>  (1) 
/data/out

>  <Rbt.Executable>  (1) 
rbdock ($Id: //depot/dev/client3/rdock/2013.1/src/exe/rbdock.cxx#4 $)

>  <Rbt.Library>  (1) 
libRbt.so (2013.1, Build901 2013/11/27)

>  <Rbt.Parameter_File>  (1) 
/python_libraries/phenodiscovery/docking/templates/RDOCK_TETHER.conf

>  <Rbt.Receptor>  (1) 
/data/out/rdock-opt/grid/rdock-grid.prm

>  <SCORE>  (1) 
-0.371321

>  <SCORE.INTER>  (1) 
-0.745182

>  <SCORE.INTER.CONST>  (1) 
1

>  <SCORE.INTER.POLAR>  (1) 
-0.126894

>  <SCORE.INTER.REPUL>  (1) 
0

>  <SCORE.INTER.ROT>  (1) 
2

>  <SCORE.INTER.VDW>  (1) 
-7.71374

>  <SCORE.INTER.norm>  (1) 
-0.0620985

>  <SCORE.INTRA>  (1) 
0.373861

>  <SCORE.INTRA.DIHEDRAL>  (1) 
0.0104454

>  <SCORE.INTRA.DIHEDRAL.0>  (1) 
1.3455

>  <SCORE.INTRA.POLAR>  (1) 
0

>  <SCORE.INTRA.POLAR.0>  (1) 
0

>  <SCORE.INTRA.REPUL>  (1) 
0

>  <SCORE.INTRA.REPUL.0>  (1) 
0

>  <SCORE.INTRA.VDW>  (1) 
0.368638

>  <SCORE.INTRA.VDW.0>  (1) 
-0.461866

>  <SCORE.INTRA.norm>  (1) 
0.0311551

>  <SCORE.RESTR>  (1) 
0

>  <SCORE.RESTR.CAVITY>  (1) 
0

>  <SCORE.RESTR.norm>  (1) 
0

>  <SCORE.SYSTEM>  (1) 
0

>  <SCORE.SYSTEM.CONST>  (1) 
0

>  <SCORE.SYSTEM.DIHEDRAL>  (1) 
0

>  <SCORE.SYSTEM.norm>  (1) 
0

>  <SCORE.heavy>  (1) 
12

>  <SCORE.norm>  (1) 
-0.0309434

>  <TETHERED ATOMS>  (1) 
1,2,3,4,5,9,10,11,12

>  <skeledock_score>  (1) 
35

$$$$
