F368
     RDKit          3D

 29 30  0  0  0  0  0  0  0  0999 V2000
  -25.3748   17.6560   30.5027 C   0  0  0  0  0  0  0  0  0  0  0  0
  -25.2039   16.1911   30.8905 C   0  0  0  0  0  0  0  0  0  0  0  0
  -24.6019   15.4350   29.7956 N   0  0  0  0  0  0  0  0  0  0  0  0
  -23.2839   15.2956   29.5610 C   0  0  0  0  0  0  0  0  0  0  0  0
  -23.1481   14.5366   28.4244 C   0  0  0  0  0  0  0  0  0  0  0  0
  -21.9077   14.1480   27.8258 N   0  0  0  0  0  0  0  0  0  0  0  0
  -20.6412   14.2084   28.4978 C   0  0  0  0  0  0  0  0  0  0  0  0
  -20.5502   14.7184   29.6469 O   0  0  0  0  0  0  0  0  0  0  0  0
  -19.4074   13.6929   27.7992 C   0  0  0  0  0  0  0  0  0  0  0  0
  -19.4005   13.8511   26.2765 C   0  0  0  0  0  0  0  0  0  0  0  0
  -18.2033   14.7850   26.3789 C   0  0  0  0  0  0  0  0  0  0  0  0
  -18.2191   14.6503   27.8926 C   0  0  0  0  0  0  0  0  0  0  0  0
  -24.4307   14.2228   28.0162 C   0  0  0  0  0  0  0  0  0  0  0  0
  -25.3028   14.7920   28.8719 N   0  0  0  0  0  0  0  0  0  0  0  0
  -25.7959   18.2219   31.3601 H   0  0  0  0  0  0  0  0  0  0  0  0
  -24.3914   18.0949   30.2308 H   0  0  0  0  0  0  0  0  0  0  0  0
  -26.0683   17.7488   29.6403 H   0  0  0  0  0  0  0  0  0  0  0  0
  -24.5536   16.1313   31.7902 H   0  0  0  0  0  0  0  0  0  0  0  0
  -26.1919   15.7518   31.1475 H   0  0  0  0  0  0  0  0  0  0  0  0
  -22.4908   15.7246   30.1602 H   0  0  0  0  0  0  0  0  0  0  0  0
  -21.9534   13.6656   26.9000 H   0  0  0  0  0  0  0  0  0  0  0  0
  -19.1446   12.6603   28.1185 H   0  0  0  0  0  0  0  0  0  0  0  0
  -20.2893   14.3667   25.8516 H   0  0  0  0  0  0  0  0  0  0  0  0
  -19.1500   12.9017   25.7548 H   0  0  0  0  0  0  0  0  0  0  0  0
  -18.4370   15.8180   26.0396 H   0  0  0  0  0  0  0  0  0  0  0  0
  -17.2856   14.3546   25.9215 H   0  0  0  0  0  0  0  0  0  0  0  0
  -18.4442   15.6201   28.3900 H   0  0  0  0  0  0  0  0  0  0  0  0
  -17.3043   14.1530   28.2827 H   0  0  0  0  0  0  0  0  0  0  0  0
  -24.7192   13.6161   27.1692 H   0  0  0  0  0  0  0  0  0  0  0  0
  1  2  1  0
  2  3  1  0
  3  4  1  0
  4  5  2  0
  5  6  1  0
  6  7  1  0
  7  8  2  0
  7  9  1  0
  9 10  1  0
 10 11  1  0
 11 12  1  0
  5 13  1  0
 13 14  2  0
 14  3  1  0
 12  9  1  0
  1 15  1  0
  1 16  1  0
  1 17  1  0
  2 18  1  0
  2 19  1  0
  4 20  1  0
  6 21  1  0
  9 22  1  0
 10 23  1  0
 10 24  1  0
 11 25  1  0
 11 26  1  0
 12 27  1  0
 12 28  1  0
 13 29  1  0
M  END
>  <CHROM.1>  (1) 
86.77335458,16.25395366,31.96164349,0.28745604,-0.02821020,-1.85117253

>  <Name>  (1) 
F368

>  <RI>  (1) 
2.79395e+07

>  <Rbt.Current_Directory>  (1) 
/data/out

>  <Rbt.Executable>  (1) 
rbdock ($Id: //depot/dev/client3/rdock/2013.1/src/exe/rbdock.cxx#4 $)

>  <Rbt.Library>  (1) 
libRbt.so (2013.1, Build901 2013/11/27)

>  <Rbt.Parameter_File>  (1) 
/python_libraries/phenodiscovery/docking/templates/RDOCK_TETHER.conf

>  <Rbt.Receptor>  (1) 
/data/out/rdock-opt/grid/rdock-grid.prm

>  <SCORE>  (1) 
-0.0664711

>  <SCORE.INTER>  (1) 
0.948885

>  <SCORE.INTER.CONST>  (1) 
1

>  <SCORE.INTER.POLAR>  (1) 
-0.320997

>  <SCORE.INTER.REPUL>  (1) 
0.0231759

>  <SCORE.INTER.ROT>  (1) 
3

>  <SCORE.INTER.VDW>  (1) 
-6.4756

>  <SCORE.INTER.norm>  (1) 
0.0677775

>  <SCORE.INTRA>  (1) 
-1.01536

>  <SCORE.INTRA.DIHEDRAL>  (1) 
-6.58107

>  <SCORE.INTRA.DIHEDRAL.0>  (1) 
14.3412

>  <SCORE.INTRA.POLAR>  (1) 
0

>  <SCORE.INTRA.POLAR.0>  (1) 
0

>  <SCORE.INTRA.REPUL>  (1) 
0

>  <SCORE.INTRA.REPUL.0>  (1) 
0

>  <SCORE.INTRA.VDW>  (1) 
2.27518

>  <SCORE.INTRA.VDW.0>  (1) 
-1.96308

>  <SCORE.INTRA.norm>  (1) 
-0.0725254

>  <SCORE.RESTR>  (1) 
0

>  <SCORE.RESTR.CAVITY>  (1) 
0

>  <SCORE.RESTR.norm>  (1) 
0

>  <SCORE.SYSTEM>  (1) 
0

>  <SCORE.SYSTEM.CONST>  (1) 
0

>  <SCORE.SYSTEM.DIHEDRAL>  (1) 
0

>  <SCORE.SYSTEM.norm>  (1) 
0

>  <SCORE.heavy>  (1) 
14

>  <SCORE.norm>  (1) 
-0.00474793

>  <TETHERED ATOMS>  (1) 
6,7,8,12,5,13,11,3,4

>  <skeledock_score>  (1) 
24

$$$$
