F366
     RDKit          3D

 22 22  0  0  0  0  0  0  0  0999 V2000
  -18.2328   13.2659   30.0560 C   0  0  0  0  0  0  0  0  0  0  0  0
  -19.6485   13.8059   29.8795 C   0  0  0  0  0  0  0  0  0  0  0  0
  -20.0372   13.7778   28.4730 N   0  0  0  0  0  0  0  0  0  0  0  0
  -19.5499   14.5764   27.5064 C   0  0  0  0  0  0  0  0  0  0  0  0
  -20.1877   14.2558   26.3307 C   0  0  0  0  0  0  0  0  0  0  0  0
  -19.9956   14.9125   24.9999 C   0  0  0  0  0  0  0  0  0  0  0  0
  -18.6265   14.5541   24.4187 C   0  0  0  0  0  0  0  0  0  0  0  0
  -17.6053   15.0464   25.2400 O   0  0  0  0  0  0  0  0  0  0  0  0
  -21.0718   13.2445   26.6570 C   0  0  0  0  0  0  0  0  0  0  0  0
  -20.9602   12.9697   27.9726 N   0  0  0  0  0  0  0  0  0  0  0  0
  -17.5005   13.9155   29.5321 H   0  0  0  0  0  0  0  0  0  0  0  0
  -18.1651   12.2345   29.6493 H   0  0  0  0  0  0  0  0  0  0  0  0
  -17.9756   13.2426   31.1359 H   0  0  0  0  0  0  0  0  0  0  0  0
  -20.3510   13.1847   30.4766 H   0  0  0  0  0  0  0  0  0  0  0  0
  -19.6991   14.8497   30.2576 H   0  0  0  0  0  0  0  0  0  0  0  0
  -18.7994   15.3435   27.6491 H   0  0  0  0  0  0  0  0  0  0  0  0
  -20.7963   14.5702   24.3096 H   0  0  0  0  0  0  0  0  0  0  0  0
  -20.0764   16.0158   25.1089 H   0  0  0  0  0  0  0  0  0  0  0  0
  -18.5288   13.4488   24.3595 H   0  0  0  0  0  0  0  0  0  0  0  0
  -18.5194   14.9643   23.3881 H   0  0  0  0  0  0  0  0  0  0  0  0
  -17.5787   16.0294   25.1024 H   0  0  0  0  0  0  0  0  0  0  0  0
  -21.7574   12.7465   25.9845 H   0  0  0  0  0  0  0  0  0  0  0  0
  1  2  1  0
  2  3  1  0
  3  4  1  0
  4  5  2  0
  5  6  1  0
  6  7  1  0
  7  8  1  0
  5  9  1  0
  9 10  2  0
 10  3  1  0
  1 11  1  0
  1 12  1  0
  1 13  1  0
  2 14  1  0
  2 15  1  0
  4 16  1  0
  6 17  1  0
  6 18  1  0
  7 19  1  0
  7 20  1  0
  8 21  1  0
  9 22  1  0
M  END
>  <CHROM.1>  (1) 
-70.89243764,70.95090577,-63.25099132,-73.52054958,-1.66992489,-0.02605863
-1.32294929

>  <Name>  (1) 
F366

>  <RI>  (1) 
3.15019e+07

>  <Rbt.Current_Directory>  (1) 
/data/out

>  <Rbt.Executable>  (1) 
rbdock ($Id: //depot/dev/client3/rdock/2013.1/src/exe/rbdock.cxx#4 $)

>  <Rbt.Library>  (1) 
libRbt.so (2013.1, Build901 2013/11/27)

>  <Rbt.Parameter_File>  (1) 
/python_libraries/phenodiscovery/docking/templates/RDOCK_TETHER.conf

>  <Rbt.Receptor>  (1) 
/data/out/rdock-opt/grid/rdock-grid.prm

>  <SCORE>  (1) 
-0.760392

>  <SCORE.INTER>  (1) 
-0.319105

>  <SCORE.INTER.CONST>  (1) 
1

>  <SCORE.INTER.POLAR>  (1) 
-0.479723

>  <SCORE.INTER.REPUL>  (1) 
0.00490802

>  <SCORE.INTER.ROT>  (1) 
3

>  <SCORE.INTER.VDW>  (1) 
-7.11259

>  <SCORE.INTER.norm>  (1) 
-0.0319105

>  <SCORE.INTRA>  (1) 
-0.441287

>  <SCORE.INTRA.DIHEDRAL>  (1) 
-0.398409

>  <SCORE.INTRA.DIHEDRAL.0>  (1) 
4.86957

>  <SCORE.INTRA.POLAR>  (1) 
0

>  <SCORE.INTRA.POLAR.0>  (1) 
0

>  <SCORE.INTRA.REPUL>  (1) 
0

>  <SCORE.INTRA.REPUL.0>  (1) 
0

>  <SCORE.INTRA.VDW>  (1) 
-0.242082

>  <SCORE.INTRA.VDW.0>  (1) 
-1.1879

>  <SCORE.INTRA.norm>  (1) 
-0.0441287

>  <SCORE.RESTR>  (1) 
0

>  <SCORE.RESTR.CAVITY>  (1) 
0

>  <SCORE.RESTR.norm>  (1) 
0

>  <SCORE.SYSTEM>  (1) 
0

>  <SCORE.SYSTEM.CONST>  (1) 
0

>  <SCORE.SYSTEM.DIHEDRAL>  (1) 
0

>  <SCORE.SYSTEM.norm>  (1) 
0

>  <SCORE.heavy>  (1) 
10

>  <SCORE.norm>  (1) 
-0.0760392

>  <TETHERED ATOMS>  (1) 
1,2,3,4,5,6,7,8

>  <skeledock_score>  (1) 
30

$$$$
