F741
     RDKit          3D

 25 27  0  0  0  0  0  0  0  0999 V2000
  -18.6509   13.1841   27.8449 O   0  0  0  0  0  0  0  0  0  0  0  0
  -19.3692   14.1527   28.2117 C   0  0  0  0  0  0  0  0  0  0  0  0
  -18.7540   15.3996   28.5649 N   0  0  0  0  0  0  0  0  0  0  0  0
  -17.3052   15.5728   28.5128 C   0  0  0  0  0  0  0  0  0  0  0  0
  -16.8346   16.3124   27.2719 C   0  0  0  0  0  0  0  0  0  0  0  0
  -16.8529   17.0191   28.6182 C   0  0  0  0  0  0  0  0  0  0  0  0
  -20.8364   13.9905   28.2679 C   0  0  0  0  0  0  0  0  0  0  0  0
  -21.6012   12.8834   27.8925 C   0  0  0  0  0  0  0  0  0  0  0  0
  -22.9160   13.1234   28.1228 N   0  0  0  0  0  0  0  0  0  0  0  0
  -22.9976   14.3418   28.6282 N   0  0  0  0  0  0  0  0  0  0  0  0
  -24.1219   14.9940   29.0138 C   0  0  0  0  0  0  0  0  0  0  0  0
  -23.9824   16.2886   29.5302 C   0  0  0  0  0  0  0  0  0  0  0  0
  -22.6910   16.8449   29.6246 C   0  0  0  0  0  0  0  0  0  0  0  0
  -21.5973   16.1332   29.2221 N   0  0  0  0  0  0  0  0  0  0  0  0
  -21.7793   14.8845   28.7275 C   0  0  0  0  0  0  0  0  0  0  0  0
  -19.3302   16.1706   28.9687 H   0  0  0  0  0  0  0  0  0  0  0  0
  -16.6448   14.7719   28.9076 H   0  0  0  0  0  0  0  0  0  0  0  0
  -17.6355   16.6437   26.5762 H   0  0  0  0  0  0  0  0  0  0  0  0
  -15.8193   16.0266   26.9251 H   0  0  0  0  0  0  0  0  0  0  0  0
  -15.8484   17.1526   29.0722 H   0  0  0  0  0  0  0  0  0  0  0  0
  -17.6624   17.7734   28.7205 H   0  0  0  0  0  0  0  0  0  0  0  0
  -21.2288   11.9536   27.4857 H   0  0  0  0  0  0  0  0  0  0  0  0
  -25.0956   14.5292   28.9244 H   0  0  0  0  0  0  0  0  0  0  0  0
  -24.8499   16.8506   29.8506 H   0  0  0  0  0  0  0  0  0  0  0  0
  -22.5631   17.8433   30.0210 H   0  0  0  0  0  0  0  0  0  0  0  0
  1  2  2  0
  2  3  1  0
  3  4  1  0
  4  5  1  0
  5  6  1  0
  2  7  1  0
  7  8  1  0
  8  9  2  0
  9 10  1  0
 10 11  1  0
 11 12  2  0
 12 13  1  0
 13 14  2  0
 14 15  1  0
  6  4  1  0
  7 15  2  0
 15 10  1  0
  3 16  1  0
  4 17  1  0
  5 18  1  0
  5 19  1  0
  6 20  1  0
  6 21  1  0
  8 22  1  0
 11 23  1  0
 12 24  1  0
 13 25  1  0
M  END
>  <CHROM.1>  (1) 
101.00748849,-3.65783413,-0.58109920,0.08325071,0.37798888

>  <Name>  (1) 
F741

>  <RI>  (1) 
3.73726e+07

>  <Rbt.Current_Directory>  (1) 
/data/out

>  <Rbt.Executable>  (1) 
rbdock ($Id: //depot/dev/client3/rdock/2013.1/src/exe/rbdock.cxx#4 $)

>  <Rbt.Library>  (1) 
libRbt.so (2013.1, Build901 2013/11/27)

>  <Rbt.Parameter_File>  (1) 
/python_libraries/phenodiscovery/docking/templates/RDOCK_TETHER.conf

>  <Rbt.Receptor>  (1) 
/data/out/rdock-opt/grid/rdock-grid.prm

>  <SCORE>  (1) 
-2.37631

>  <SCORE.INTER>  (1) 
-1.226

>  <SCORE.INTER.CONST>  (1) 
1

>  <SCORE.INTER.POLAR>  (1) 
-0.438799

>  <SCORE.INTER.REPUL>  (1) 
0.357871

>  <SCORE.INTER.ROT>  (1) 
2

>  <SCORE.INTER.VDW>  (1) 
-8.92344

>  <SCORE.INTER.norm>  (1) 
-0.0817331

>  <SCORE.INTRA>  (1) 
-1.15032

>  <SCORE.INTRA.DIHEDRAL>  (1) 
0.117249

>  <SCORE.INTRA.DIHEDRAL.0>  (1) 
1.21058

>  <SCORE.INTRA.POLAR>  (1) 
-0.389736

>  <SCORE.INTRA.POLAR.0>  (1) 
0

>  <SCORE.INTRA.REPUL>  (1) 
0

>  <SCORE.INTRA.REPUL.0>  (1) 
0

>  <SCORE.INTRA.VDW>  (1) 
0.116163

>  <SCORE.INTRA.VDW.0>  (1) 
-1.66312

>  <SCORE.INTRA.norm>  (1) 
-0.0766877

>  <SCORE.RESTR>  (1) 
0

>  <SCORE.RESTR.CAVITY>  (1) 
0

>  <SCORE.RESTR.norm>  (1) 
0

>  <SCORE.SYSTEM>  (1) 
0

>  <SCORE.SYSTEM.CONST>  (1) 
0

>  <SCORE.SYSTEM.DIHEDRAL>  (1) 
0

>  <SCORE.SYSTEM.norm>  (1) 
0

>  <SCORE.heavy>  (1) 
15

>  <SCORE.norm>  (1) 
-0.158421

>  <TETHERED ATOMS>  (1) 
2,7,15,14,13,12,1,11

>  <skeledock_score>  (1) 
26

$$$$
