F600
     RDKit          3D

 16 16  0  0  0  0  0  0  0  0999 V2000
  -18.5089   11.5173   24.5364 C   0  0  0  0  0  0  0  0  0  0  0  0
  -18.4406   12.7496   25.2203 O   0  0  0  0  0  0  0  0  0  0  0  0
  -18.8612   12.5882   26.5607 C   0  0  0  0  0  0  0  0  0  0  0  0
  -18.8142   13.8962   27.2839 C   0  0  0  0  0  0  0  0  0  0  0  0
  -19.9170   14.5743   27.6748 N   0  0  0  0  0  0  0  0  0  0  0  0
  -19.6375   15.7195   28.2943 N   0  0  0  0  0  0  0  0  0  0  0  0
  -18.3115   15.9513   28.3940 C   0  0  0  0  0  0  0  0  0  0  0  0
  -17.7639   17.1102   29.0157 N   0  0  0  0  0  0  0  0  0  0  0  0
  -17.4010   14.7168   27.7026 S   0  0  0  0  0  0  0  0  0  0  0  0
  -19.5338   11.0851   24.5758 H   0  0  0  0  0  0  0  0  0  0  0  0
  -17.7672   10.7960   24.9449 H   0  0  0  0  0  0  0  0  0  0  0  0
  -18.2580   11.6901   23.4698 H   0  0  0  0  0  0  0  0  0  0  0  0
  -18.1545   11.8955   27.0633 H   0  0  0  0  0  0  0  0  0  0  0  0
  -19.8717   12.1240   26.6499 H   0  0  0  0  0  0  0  0  0  0  0  0
  -16.7296   17.2419   29.0671 H   0  0  0  0  0  0  0  0  0  0  0  0
  -18.3935   17.8358   29.4242 H   0  0  0  0  0  0  0  0  0  0  0  0
  1  2  1  0
  2  3  1  0
  3  4  1  0
  4  5  2  0
  5  6  1  0
  6  7  2  0
  7  8  1  0
  7  9  1  0
  9  4  1  0
  1 10  1  0
  1 11  1  0
  1 12  1  0
  3 13  1  0
  3 14  1  0
  8 15  1  0
  8 16  1  0
M  END
>  <CHROM.1>  (1) 
-178.98303311,109.93640030,-1.64090324,1.03558195,0.76028958

>  <Name>  (1) 
F600

>  <RI>  (1) 
3.00077e+07

>  <Rbt.Current_Directory>  (1) 
/data/out

>  <Rbt.Executable>  (1) 
rbdock ($Id: //depot/dev/client3/rdock/2013.1/src/exe/rbdock.cxx#4 $)

>  <Rbt.Library>  (1) 
libRbt.so (2013.1, Build901 2013/11/27)

>  <Rbt.Parameter_File>  (1) 
/python_libraries/phenodiscovery/docking/templates/RDOCK_TETHER.conf

>  <Rbt.Receptor>  (1) 
/data/out/rdock-opt/grid/rdock-grid.prm

>  <SCORE>  (1) 
-2.58441

>  <SCORE.INTER>  (1) 
-1.51989

>  <SCORE.INTER.CONST>  (1) 
1

>  <SCORE.INTER.POLAR>  (1) 
0

>  <SCORE.INTER.REPUL>  (1) 
0

>  <SCORE.INTER.ROT>  (1) 
2

>  <SCORE.INTER.VDW>  (1) 
-8.91989

>  <SCORE.INTER.norm>  (1) 
-0.168877

>  <SCORE.INTRA>  (1) 
-1.06451

>  <SCORE.INTRA.DIHEDRAL>  (1) 
-2.89207

>  <SCORE.INTRA.DIHEDRAL.0>  (1) 
4.29157

>  <SCORE.INTRA.POLAR>  (1) 
0

>  <SCORE.INTRA.POLAR.0>  (1) 
0

>  <SCORE.INTRA.REPUL>  (1) 
0

>  <SCORE.INTRA.REPUL.0>  (1) 
0

>  <SCORE.INTRA.VDW>  (1) 
0.38152

>  <SCORE.INTRA.VDW.0>  (1) 
0.145315

>  <SCORE.INTRA.norm>  (1) 
-0.118279

>  <SCORE.RESTR>  (1) 
0

>  <SCORE.RESTR.CAVITY>  (1) 
0

>  <SCORE.RESTR.norm>  (1) 
0

>  <SCORE.SYSTEM>  (1) 
0

>  <SCORE.SYSTEM.CONST>  (1) 
0

>  <SCORE.SYSTEM.DIHEDRAL>  (1) 
0

>  <SCORE.SYSTEM.norm>  (1) 
0

>  <SCORE.heavy>  (1) 
9

>  <SCORE.norm>  (1) 
-0.287156

>  <TETHERED ATOMS>  (1) 
1,4,3,7

>  <skeledock_score>  (1) 
15

$$$$
