F501
     RDKit          3D

 24 25  0  0  0  0  0  0  0  0999 V2000
  -17.3012   11.9116   30.6670 C   0  0  0  0  0  0  0  0  0  0  0  0
  -18.2959   12.8611   31.1517 N   0  0  0  0  0  0  0  0  0  0  0  0
  -18.5026   13.1294   32.4338 N   0  0  0  0  0  0  0  0  0  0  0  0
  -19.4486   14.0525   32.5732 N   0  0  0  0  0  0  0  0  0  0  0  0
  -19.8438   14.3803   31.3288 C   0  0  0  0  0  0  0  0  0  0  0  0
  -20.8980   15.3709   30.9527 C   0  0  0  0  0  0  0  0  0  0  0  0
  -20.7443   15.7678   29.4699 C   0  0  0  0  0  0  0  0  0  0  0  0
  -20.5408   14.5273   28.5605 C   0  0  0  0  0  0  0  0  0  0  0  0
  -19.2576   13.7385   28.9456 C   0  0  0  0  0  0  0  0  0  0  0  0
  -19.1423   13.6209   30.4353 C   0  0  0  0  0  0  0  0  0  0  0  0
  -20.5467   14.9378   27.1092 C   0  0  0  0  0  0  0  0  0  0  0  0
  -19.5251   14.7913   26.3840 O   0  0  0  0  0  0  0  0  0  0  0  0
  -21.7039   15.4822   26.5598 O   0  0  0  0  0  0  0  0  0  0  0  0
  -17.5321   10.8999   31.0607 H   0  0  0  0  0  0  0  0  0  0  0  0
  -17.2932   11.8719   29.5581 H   0  0  0  0  0  0  0  0  0  0  0  0
  -16.2942   12.2182   31.0190 H   0  0  0  0  0  0  0  0  0  0  0  0
  -21.8961   14.9105   31.1145 H   0  0  0  0  0  0  0  0  0  0  0  0
  -20.8127   16.2738   31.5940 H   0  0  0  0  0  0  0  0  0  0  0  0
  -19.8730   16.4517   29.3616 H   0  0  0  0  0  0  0  0  0  0  0  0
  -21.6551   16.3249   29.1592 H   0  0  0  0  0  0  0  0  0  0  0  0
  -21.4104   13.8487   28.7096 H   0  0  0  0  0  0  0  0  0  0  0  0
  -19.3068   12.7242   28.4951 H   0  0  0  0  0  0  0  0  0  0  0  0
  -18.3466   14.2557   28.5741 H   0  0  0  0  0  0  0  0  0  0  0  0
  -22.5434   15.5889   27.1166 H   0  0  0  0  0  0  0  0  0  0  0  0
  1  2  1  0
  2  3  1  0
  3  4  2  0
  4  5  1  0
  5  6  1  0
  6  7  1  0
  7  8  1  0
  8  9  1  0
  9 10  1  0
  8 11  1  0
 11 12  2  0
 11 13  1  0
 10  2  1  0
  5 10  2  0
  1 14  1  0
  1 15  1  0
  1 16  1  0
  6 17  1  0
  6 18  1  0
  7 19  1  0
  7 20  1  0
  8 21  1  0
  9 22  1  0
  9 23  1  0
 13 24  1  0
M  END
>  <CHROM.1>  (1) 
116.39576248,-1.16750001,-1.54930534,0.77674873,-1.51737366

>  <Name>  (1) 
F501

>  <RI>  (1) 
2.02666e+07

>  <Rbt.Current_Directory>  (1) 
/data/out

>  <Rbt.Executable>  (1) 
rbdock ($Id: //depot/dev/client3/rdock/2013.1/src/exe/rbdock.cxx#4 $)

>  <Rbt.Library>  (1) 
libRbt.so (2013.1, Build901 2013/11/27)

>  <Rbt.Parameter_File>  (1) 
/python_libraries/phenodiscovery/docking/templates/RDOCK_TETHER.conf

>  <Rbt.Receptor>  (1) 
/data/out/rdock-opt/grid/rdock-grid.prm

>  <SCORE>  (1) 
-2.25437

>  <SCORE.INTER>  (1) 
-2.19665

>  <SCORE.INTER.CONST>  (1) 
1

>  <SCORE.INTER.POLAR>  (1) 
0

>  <SCORE.INTER.REPUL>  (1) 
0

>  <SCORE.INTER.ROT>  (1) 
1

>  <SCORE.INTER.VDW>  (1) 
-8.59665

>  <SCORE.INTER.norm>  (1) 
-0.168973

>  <SCORE.INTRA>  (1) 
-0.057721

>  <SCORE.INTRA.DIHEDRAL>  (1) 
0.0427809

>  <SCORE.INTRA.DIHEDRAL.0>  (1) 
0.620949

>  <SCORE.INTRA.POLAR>  (1) 
0

>  <SCORE.INTRA.POLAR.0>  (1) 
0

>  <SCORE.INTRA.REPUL>  (1) 
0

>  <SCORE.INTRA.REPUL.0>  (1) 
0

>  <SCORE.INTRA.VDW>  (1) 
-0.0791115

>  <SCORE.INTRA.VDW.0>  (1) 
-0.507547

>  <SCORE.INTRA.norm>  (1) 
-0.00444008

>  <SCORE.RESTR>  (1) 
0

>  <SCORE.RESTR.CAVITY>  (1) 
0

>  <SCORE.RESTR.norm>  (1) 
0

>  <SCORE.SYSTEM>  (1) 
0

>  <SCORE.SYSTEM.CONST>  (1) 
0

>  <SCORE.SYSTEM.DIHEDRAL>  (1) 
0

>  <SCORE.SYSTEM.norm>  (1) 
0

>  <SCORE.heavy>  (1) 
13

>  <SCORE.norm>  (1) 
-0.173413

>  <TETHERED ATOMS>  (1) 
5,6,7,8,4,9,11,12

>  <skeledock_score>  (1) 
42

$$$$
