F199
     RDKit          3D

 25 26  0  0  0  0  0  0  0  0999 V2000
  -20.0060   14.0380   28.4827 C   0  0  0  0  0  0  0  0  0  0  0  0
  -21.3879   14.3712   28.9350 C   0  0  0  0  0  0  0  0  0  0  0  0
  -22.1906   15.3809   28.4486 C   0  0  0  0  0  0  0  0  0  0  0  0
  -23.3472   15.2589   29.1964 C   0  0  0  0  0  0  0  0  0  0  0  0
  -23.2153   14.2379   30.0672 N   0  0  0  0  0  0  0  0  0  0  0  0
  -22.0319   13.7298   29.8810 O   0  0  0  0  0  0  0  0  0  0  0  0
  -24.5536   16.0995   29.1066 C   0  0  0  0  0  0  0  0  0  0  0  0
  -25.6151   15.6968   29.6535 O   0  0  0  0  0  0  0  0  0  0  0  0
  -24.5378   17.3394   28.3803 N   0  0  0  0  0  0  0  0  0  0  0  0
  -25.5634   18.3392   28.4742 C   0  0  0  0  0  0  0  0  0  0  0  0
  -25.7068   19.4945   27.7247 C   0  0  0  0  0  0  0  0  0  0  0  0
  -26.8557   20.1016   28.0848 N   0  0  0  0  0  0  0  0  0  0  0  0
  -27.4203   19.3684   29.0334 N   0  0  0  0  0  0  0  0  0  0  0  0
  -28.7189   19.6647   29.6221 C   0  0  0  0  0  0  0  0  0  0  0  0
  -26.6755   18.2755   29.2825 C   0  0  0  0  0  0  0  0  0  0  0  0
  -19.3048   14.1318   29.3376 H   0  0  0  0  0  0  0  0  0  0  0  0
  -19.6839   14.7257   27.6724 H   0  0  0  0  0  0  0  0  0  0  0  0
  -19.9828   12.9954   28.1035 H   0  0  0  0  0  0  0  0  0  0  0  0
  -21.9552   16.0977   27.6736 H   0  0  0  0  0  0  0  0  0  0  0  0
  -23.7608   17.5165   27.7059 H   0  0  0  0  0  0  0  0  0  0  0  0
  -25.0523   19.8579   26.9454 H   0  0  0  0  0  0  0  0  0  0  0  0
  -28.7309   19.3628   30.6911 H   0  0  0  0  0  0  0  0  0  0  0  0
  -28.9258   20.7539   29.5577 H   0  0  0  0  0  0  0  0  0  0  0  0
  -29.5097   19.1103   29.0751 H   0  0  0  0  0  0  0  0  0  0  0  0
  -26.9303   17.4904   29.9832 H   0  0  0  0  0  0  0  0  0  0  0  0
  1  2  1  0
  2  3  2  0
  3  4  1  0
  4  5  2  0
  5  6  1  0
  4  7  1  0
  7  8  2  0
  7  9  1  0
  9 10  1  0
 10 11  1  0
 11 12  2  0
 12 13  1  0
 13 14  1  0
 13 15  1  0
  6  2  1  0
 10 15  2  0
  1 16  1  0
  1 17  1  0
  1 18  1  0
  3 19  1  0
  9 20  1  0
 11 21  1  0
 14 22  1  0
 14 23  1  0
 14 24  1  0
 15 25  1  0
M  END
>  <CHROM.1>  (1) 
165.54265626,-172.98043106,-0.55572980,0.38218145,-0.65693671

>  <Name>  (1) 
F199

>  <RI>  (1) 
2.99548e+07

>  <Rbt.Current_Directory>  (1) 
/data/out

>  <Rbt.Executable>  (1) 
rbdock ($Id: //depot/dev/client3/rdock/2013.1/src/exe/rbdock.cxx#4 $)

>  <Rbt.Library>  (1) 
libRbt.so (2013.1, Build901 2013/11/27)

>  <Rbt.Parameter_File>  (1) 
/python_libraries/phenodiscovery/docking/templates/RDOCK_TETHER.conf

>  <Rbt.Receptor>  (1) 
/data/out/rdock-opt/grid/rdock-grid.prm

>  <SCORE>  (1) 
0.60657

>  <SCORE.INTER>  (1) 
0.0580314

>  <SCORE.INTER.CONST>  (1) 
1

>  <SCORE.INTER.POLAR>  (1) 
0

>  <SCORE.INTER.REPUL>  (1) 
0

>  <SCORE.INTER.ROT>  (1) 
2

>  <SCORE.INTER.VDW>  (1) 
-7.34197

>  <SCORE.INTER.norm>  (1) 
0.00386876

>  <SCORE.INTRA>  (1) 
0.548538

>  <SCORE.INTRA.DIHEDRAL>  (1) 
-2.07585

>  <SCORE.INTRA.DIHEDRAL.0>  (1) 
3.02803

>  <SCORE.INTRA.POLAR>  (1) 
0

>  <SCORE.INTRA.POLAR.0>  (1) 
0

>  <SCORE.INTRA.REPUL>  (1) 
0

>  <SCORE.INTRA.REPUL.0>  (1) 
0

>  <SCORE.INTRA.VDW>  (1) 
1.58647

>  <SCORE.INTRA.VDW.0>  (1) 
-0.927568

>  <SCORE.INTRA.norm>  (1) 
0.0365692

>  <SCORE.RESTR>  (1) 
0

>  <SCORE.RESTR.CAVITY>  (1) 
0

>  <SCORE.RESTR.norm>  (1) 
0

>  <SCORE.SYSTEM>  (1) 
0

>  <SCORE.SYSTEM.CONST>  (1) 
0

>  <SCORE.SYSTEM.DIHEDRAL>  (1) 
0

>  <SCORE.SYSTEM.norm>  (1) 
0

>  <SCORE.heavy>  (1) 
15

>  <SCORE.norm>  (1) 
0.040438

>  <TETHERED ATOMS>  (1) 
1,2,6,9,4,7

>  <skeledock_score>  (1) 
31

$$$$
