F368
     RDKit          3D

 29 30  0  0  0  0  0  0  0  0999 V2000
  -21.0223   12.8614   27.8154 C   0  0  0  0  0  0  0  0  0  0  0  0
  -20.9541   14.1951   27.0811 C   0  0  0  0  0  0  0  0  0  0  0  0
  -19.5937   14.4524   26.6163 N   0  0  0  0  0  0  0  0  0  0  0  0
  -18.8540   15.5423   26.8994 C   0  0  0  0  0  0  0  0  0  0  0  0
  -17.6352   15.3872   26.2701 C   0  0  0  0  0  0  0  0  0  0  0  0
  -16.5339   16.3059   26.2245 N   0  0  0  0  0  0  0  0  0  0  0  0
  -16.3684   17.4147   27.1218 C   0  0  0  0  0  0  0  0  0  0  0  0
  -17.0165   17.4613   28.2022 O   0  0  0  0  0  0  0  0  0  0  0  0
  -15.3151   18.4572   26.8373 C   0  0  0  0  0  0  0  0  0  0  0  0
  -13.9966   17.8762   26.3251 C   0  0  0  0  0  0  0  0  0  0  0  0
  -14.1660   18.6357   25.0172 C   0  0  0  0  0  0  0  0  0  0  0  0
  -15.4904   19.2001   25.5105 C   0  0  0  0  0  0  0  0  0  0  0  0
  -17.7035   14.1784   25.6081 C   0  0  0  0  0  0  0  0  0  0  0  0
  -18.9092   13.6228   25.8408 N   0  0  0  0  0  0  0  0  0  0  0  0
  -22.0657   12.6682   28.1425 H   0  0  0  0  0  0  0  0  0  0  0  0
  -20.3654   12.8812   28.7108 H   0  0  0  0  0  0  0  0  0  0  0  0
  -20.6987   12.0395   27.1420 H   0  0  0  0  0  0  0  0  0  0  0  0
  -21.6571   14.1697   26.2196 H   0  0  0  0  0  0  0  0  0  0  0  0
  -21.2714   15.0133   27.7626 H   0  0  0  0  0  0  0  0  0  0  0  0
  -19.1951   16.3834   27.4876 H   0  0  0  0  0  0  0  0  0  0  0  0
  -15.7982   16.1443   25.5001 H   0  0  0  0  0  0  0  0  0  0  0  0
  -15.1678   19.1506   27.6944 H   0  0  0  0  0  0  0  0  0  0  0  0
  -13.1212   18.2323   26.9109 H   0  0  0  0  0  0  0  0  0  0  0  0
  -14.0085   16.7746   26.1683 H   0  0  0  0  0  0  0  0  0  0  0  0
  -14.2890   17.9590   24.1433 H   0  0  0  0  0  0  0  0  0  0  0  0
  -13.3924   19.4220   24.8769 H   0  0  0  0  0  0  0  0  0  0  0  0
  -15.4570   20.3044   25.6371 H   0  0  0  0  0  0  0  0  0  0  0  0
  -16.3442   18.8513   24.8888 H   0  0  0  0  0  0  0  0  0  0  0  0
  -16.9318   13.7338   24.9940 H   0  0  0  0  0  0  0  0  0  0  0  0
  1  2  1  0
  2  3  1  0
  3  4  1  0
  4  5  2  0
  5  6  1  0
  6  7  1  0
  7  8  2  0
  7  9  1  0
  9 10  1  0
 10 11  1  0
 11 12  1  0
  5 13  1  0
 13 14  2  0
 14  3  1  0
 12  9  1  0
  1 15  1  0
  1 16  1  0
  1 17  1  0
  2 18  1  0
  2 19  1  0
  4 20  1  0
  6 21  1  0
  9 22  1  0
 10 23  1  0
 10 24  1  0
 11 25  1  0
 11 26  1  0
 12 27  1  0
 12 28  1  0
 13 29  1  0
M  END
>  <CHROM.1>  (1) 
-124.19288577,17.27824000,-40.65499233,-3.13506071,-0.37245812,-2.62598309

>  <Name>  (1) 
F368

>  <RI>  (1) 
1.92454e+07

>  <Rbt.Current_Directory>  (1) 
/data/out

>  <Rbt.Executable>  (1) 
rbdock ($Id: //depot/dev/client3/rdock/2013.1/src/exe/rbdock.cxx#4 $)

>  <Rbt.Library>  (1) 
libRbt.so (2013.1, Build901 2013/11/27)

>  <Rbt.Parameter_File>  (1) 
/python_libraries/phenodiscovery/docking/templates/RDOCK_TETHER.conf

>  <Rbt.Receptor>  (1) 
/data/out/rdock-opt/grid/rdock-grid.prm

>  <SCORE>  (1) 
0.651983

>  <SCORE.INTER>  (1) 
-0.243331

>  <SCORE.INTER.CONST>  (1) 
1

>  <SCORE.INTER.POLAR>  (1) 
-0.0345485

>  <SCORE.INTER.REPUL>  (1) 
0.19854

>  <SCORE.INTER.ROT>  (1) 
3

>  <SCORE.INTER.VDW>  (1) 
-9.51857

>  <SCORE.INTER.norm>  (1) 
-0.0173808

>  <SCORE.INTRA>  (1) 
0.895314

>  <SCORE.INTRA.DIHEDRAL>  (1) 
0.0240405

>  <SCORE.INTRA.DIHEDRAL.0>  (1) 
6.59693

>  <SCORE.INTRA.POLAR>  (1) 
0

>  <SCORE.INTRA.POLAR.0>  (1) 
0

>  <SCORE.INTRA.REPUL>  (1) 
0

>  <SCORE.INTRA.REPUL.0>  (1) 
0

>  <SCORE.INTRA.VDW>  (1) 
0.883294

>  <SCORE.INTRA.VDW.0>  (1) 
-1.76008

>  <SCORE.INTRA.norm>  (1) 
0.063951

>  <SCORE.RESTR>  (1) 
0

>  <SCORE.RESTR.CAVITY>  (1) 
0

>  <SCORE.RESTR.norm>  (1) 
0

>  <SCORE.SYSTEM>  (1) 
0

>  <SCORE.SYSTEM.CONST>  (1) 
0

>  <SCORE.SYSTEM.DIHEDRAL>  (1) 
0

>  <SCORE.SYSTEM.norm>  (1) 
0

>  <SCORE.heavy>  (1) 
14

>  <SCORE.norm>  (1) 
0.0465702

>  <TETHERED ATOMS>  (1) 
2,3,4,5,13,14

>  <skeledock_score>  (1) 
31

$$$$
