F13
     RDKit          3D

 16 16  0  0  0  0  0  0  0  0999 V2000
  -18.9957   13.6311   31.6934 Br  0  0  0  0  0  0  0  0  0  0  0  0
  -19.0223   13.1995   29.8369 C   0  0  0  0  0  0  0  0  0  0  0  0
  -20.0275   13.4597   28.9352 C   0  0  0  0  0  0  0  0  0  0  0  0
  -19.6372   12.9923   27.7344 N   0  0  0  0  0  0  0  0  0  0  0  0
  -20.3915   13.0885   26.4878 C   0  0  0  0  0  0  0  0  0  0  0  0
  -19.7003   14.0365   25.5073 C   0  0  0  0  0  0  0  0  0  0  0  0
  -18.4100   13.5794   25.2031 O   0  0  0  0  0  0  0  0  0  0  0  0
  -18.4272   12.4613   27.8255 N   0  0  0  0  0  0  0  0  0  0  0  0
  -18.0308   12.5732   29.1088 C   0  0  0  0  0  0  0  0  0  0  0  0
  -20.9685   13.9551   29.1368 H   0  0  0  0  0  0  0  0  0  0  0  0
  -20.4668   12.0796   26.0274 H   0  0  0  0  0  0  0  0  0  0  0  0
  -21.4249   13.4459   26.6916 H   0  0  0  0  0  0  0  0  0  0  0  0
  -19.6151   15.0379   25.9796 H   0  0  0  0  0  0  0  0  0  0  0  0
  -20.3115   14.1510   24.5826 H   0  0  0  0  0  0  0  0  0  0  0  0
  -17.9762   13.3518   26.0665 H   0  0  0  0  0  0  0  0  0  0  0  0
  -17.0792   12.2254   29.4874 H   0  0  0  0  0  0  0  0  0  0  0  0
  1  2  1  0
  2  3  2  0
  3  4  1  0
  4  5  1  0
  5  6  1  0
  6  7  1  0
  4  8  1  0
  8  9  2  0
  9  2  1  0
  3 10  1  0
  5 11  1  0
  5 12  1  0
  6 13  1  0
  6 14  1  0
  7 15  1  0
  9 16  1  0
M  END
>  <CHROM.1>  (1) 
111.65509398,60.04032596,-47.60530396,-1.43629484,-0.28273805,1.71520309

>  <Name>  (1) 
F13

>  <RI>  (1) 
1.75685e+07

>  <Rbt.Current_Directory>  (1) 
/data/out

>  <Rbt.Executable>  (1) 
rbdock ($Id: //depot/dev/client3/rdock/2013.1/src/exe/rbdock.cxx#4 $)

>  <Rbt.Library>  (1) 
libRbt.so (2013.1, Build901 2013/11/27)

>  <Rbt.Parameter_File>  (1) 
/python_libraries/phenodiscovery/docking/templates/RDOCK_TETHER.conf

>  <Rbt.Receptor>  (1) 
/data/out/rdock-opt/grid/rdock-grid.prm

>  <SCORE>  (1) 
-4.70827

>  <SCORE.INTER>  (1) 
-1.27706

>  <SCORE.INTER.CONST>  (1) 
1

>  <SCORE.INTER.POLAR>  (1) 
0

>  <SCORE.INTER.REPUL>  (1) 
0

>  <SCORE.INTER.ROT>  (1) 
2

>  <SCORE.INTER.VDW>  (1) 
-8.67706

>  <SCORE.INTER.norm>  (1) 
-0.141895

>  <SCORE.INTRA>  (1) 
-3.43121

>  <SCORE.INTRA.DIHEDRAL>  (1) 
-1.89579

>  <SCORE.INTRA.DIHEDRAL.0>  (1) 
4.98574

>  <SCORE.INTRA.POLAR>  (1) 
-0.789279

>  <SCORE.INTRA.POLAR.0>  (1) 
0

>  <SCORE.INTRA.REPUL>  (1) 
0

>  <SCORE.INTRA.REPUL.0>  (1) 
0

>  <SCORE.INTRA.VDW>  (1) 
0.200229

>  <SCORE.INTRA.VDW.0>  (1) 
-0.73913

>  <SCORE.INTRA.norm>  (1) 
-0.381246

>  <SCORE.RESTR>  (1) 
0

>  <SCORE.RESTR.CAVITY>  (1) 
0

>  <SCORE.RESTR.norm>  (1) 
0

>  <SCORE.SYSTEM>  (1) 
0

>  <SCORE.SYSTEM.CONST>  (1) 
0

>  <SCORE.SYSTEM.DIHEDRAL>  (1) 
0

>  <SCORE.SYSTEM.norm>  (1) 
0

>  <SCORE.heavy>  (1) 
9

>  <SCORE.norm>  (1) 
-0.523141

>  <TETHERED ATOMS>  (1) 
7,6,3,2

>  <skeledock_score>  (1) 
21

$$$$
