F579
     RDKit          3D

 29 31  0  0  0  0  0  0  0  0999 V2000
  -18.2220   12.1786   24.2802 C   0  0  0  0  0  0  0  0  0  0  0  0
  -18.6900   12.1732   25.6243 O   0  0  0  0  0  0  0  0  0  0  0  0
  -18.8313   13.3202   26.4187 C   0  0  0  0  0  0  0  0  0  0  0  0
  -17.9924   13.5796   27.5346 C   0  0  0  0  0  0  0  0  0  0  0  0
  -18.1625   14.7440   28.3029 C   0  0  0  0  0  0  0  0  0  0  0  0
  -19.1696   15.6412   27.9500 C   0  0  0  0  0  0  0  0  0  0  0  0
  -19.4324   16.7976   28.6103 N   0  0  0  0  0  0  0  0  0  0  0  0
  -20.4680   17.4567   28.0330 C   0  0  0  0  0  0  0  0  0  0  0  0
  -20.9824   18.7107   28.5021 N   0  0  0  0  0  0  0  0  0  0  0  0
  -20.4466   19.4191   29.6388 C   0  0  0  0  0  0  0  0  0  0  0  0
  -19.4730   18.9364   30.2765 O   0  0  0  0  0  0  0  0  0  0  0  0
  -21.0020   20.7411   30.1189 C   0  0  0  0  0  0  0  0  0  0  0  0
  -21.5020   20.8008   31.5546 C   0  0  0  0  0  0  0  0  0  0  0  0
  -22.4961   20.8030   30.3992 C   0  0  0  0  0  0  0  0  0  0  0  0
  -21.0924   16.6339   26.6904 S   0  0  0  0  0  0  0  0  0  0  0  0
  -19.9857   15.3834   26.8613 C   0  0  0  0  0  0  0  0  0  0  0  0
  -19.8421   14.2381   26.0839 C   0  0  0  0  0  0  0  0  0  0  0  0
  -18.2211   11.1394   23.8923 H   0  0  0  0  0  0  0  0  0  0  0  0
  -18.8923   12.7956   23.6452 H   0  0  0  0  0  0  0  0  0  0  0  0
  -17.1853   12.5743   24.2385 H   0  0  0  0  0  0  0  0  0  0  0  0
  -17.2086   12.8887   27.8128 H   0  0  0  0  0  0  0  0  0  0  0  0
  -17.5211   14.9395   29.1529 H   0  0  0  0  0  0  0  0  0  0  0  0
  -21.7877   19.1054   27.9709 H   0  0  0  0  0  0  0  0  0  0  0  0
  -20.5567   21.6852   29.7375 H   0  0  0  0  0  0  0  0  0  0  0  0
  -21.3802   21.7923   32.0399 H   0  0  0  0  0  0  0  0  0  0  0  0
  -21.4712   19.8597   32.1401 H   0  0  0  0  0  0  0  0  0  0  0  0
  -23.0722   19.8630   30.2794 H   0  0  0  0  0  0  0  0  0  0  0  0
  -22.9560   21.7955   30.2084 H   0  0  0  0  0  0  0  0  0  0  0  0
  -20.4937   14.0611   25.2377 H   0  0  0  0  0  0  0  0  0  0  0  0
  1  2  1  0
  2  3  1  0
  3  4  2  0
  4  5  1  0
  5  6  2  0
  6  7  1  0
  7  8  2  0
  8  9  1  0
  9 10  1  0
 10 11  2  0
 10 12  1  0
 12 13  1  0
 13 14  1  0
  8 15  1  0
 15 16  1  0
 16 17  2  0
  3 17  1  0
  6 16  1  0
 14 12  1  0
  1 18  1  0
  1 19  1  0
  1 20  1  0
  4 21  1  0
  5 22  1  0
  9 23  1  0
 12 24  1  0
 13 25  1  0
 13 26  1  0
 14 27  1  0
 14 28  1  0
 17 29  1  0
M  END
>  <CHROM.1>  (1) 
-110.56621502,0.50981571,121.77548739,-2.08171782,0.78083837,-2.13830088

>  <Name>  (1) 
F579

>  <RI>  (1) 
3.87444e+07

>  <Rbt.Current_Directory>  (1) 
/data/out

>  <Rbt.Executable>  (1) 
rbdock ($Id: //depot/dev/client3/rdock/2013.1/src/exe/rbdock.cxx#4 $)

>  <Rbt.Library>  (1) 
libRbt.so (2013.1, Build901 2013/11/27)

>  <Rbt.Parameter_File>  (1) 
/python_libraries/phenodiscovery/docking/templates/RDOCK_TETHER.conf

>  <Rbt.Receptor>  (1) 
/data/out/rdock-opt/grid/rdock-grid.prm

>  <SCORE>  (1) 
1.73519

>  <SCORE.INTER>  (1) 
-1.33481

>  <SCORE.INTER.CONST>  (1) 
1

>  <SCORE.INTER.POLAR>  (1) 
-0.0215994

>  <SCORE.INTER.REPUL>  (1) 
0

>  <SCORE.INTER.ROT>  (1) 
3

>  <SCORE.INTER.VDW>  (1) 
-9.66137

>  <SCORE.INTER.norm>  (1) 
-0.0785184

>  <SCORE.INTRA>  (1) 
1.09531

>  <SCORE.INTRA.DIHEDRAL>  (1) 
4.60933

>  <SCORE.INTRA.DIHEDRAL.0>  (1) 
1.84446

>  <SCORE.INTRA.POLAR>  (1) 
0

>  <SCORE.INTRA.POLAR.0>  (1) 
0

>  <SCORE.INTRA.REPUL>  (1) 
0

>  <SCORE.INTRA.REPUL.0>  (1) 
0

>  <SCORE.INTRA.VDW>  (1) 
-1.20935

>  <SCORE.INTRA.VDW.0>  (1) 
-0.904141

>  <SCORE.INTRA.norm>  (1) 
0.0644299

>  <SCORE.RESTR>  (1) 
1.9747

>  <SCORE.RESTR.CAVITY>  (1) 
1.9747

>  <SCORE.RESTR.norm>  (1) 
0.116159

>  <SCORE.SYSTEM>  (1) 
0

>  <SCORE.SYSTEM.CONST>  (1) 
0

>  <SCORE.SYSTEM.DIHEDRAL>  (1) 
0

>  <SCORE.SYSTEM.norm>  (1) 
0

>  <SCORE.heavy>  (1) 
17

>  <SCORE.norm>  (1) 
0.10207

>  <TETHERED ATOMS>  (1) 
4,3,17,16,1,2

>  <skeledock_score>  (1) 
31

$$$$
