F503
     RDKit          3D

 29 30  0  0  0  0  0  0  0  0999 V2000
  -17.2226   16.3683   26.8802 C   0  0  0  0  0  0  0  0  0  0  0  0
  -18.0025   15.1415   26.9747 N   0  0  0  0  0  0  0  0  0  0  0  0
  -19.0047   14.8140   26.0059 C   0  0  0  0  0  0  0  0  0  0  0  0
  -19.2530   15.6046   25.0552 O   0  0  0  0  0  0  0  0  0  0  0  0
  -19.8021   13.5493   26.1407 C   0  0  0  0  0  0  0  0  0  0  0  0
  -20.9533   13.5008   27.1579 C   0  0  0  0  0  0  0  0  0  0  0  0
  -20.5563   14.1447   28.4643 C   0  0  0  0  0  0  0  0  0  0  0  0
  -19.5736   13.5434   29.2707 C   0  0  0  0  0  0  0  0  0  0  0  0
  -19.1911   14.1339   30.4787 C   0  0  0  0  0  0  0  0  0  0  0  0
  -19.7836   15.3291   30.8923 C   0  0  0  0  0  0  0  0  0  0  0  0
  -20.7612   15.9350   30.0997 C   0  0  0  0  0  0  0  0  0  0  0  0
  -21.1496   15.3497   28.8899 C   0  0  0  0  0  0  0  0  0  0  0  0
  -22.1089   15.9545   28.1442 F   0  0  0  0  0  0  0  0  0  0  0  0
  -18.9872   12.2675   26.0106 C   0  0  0  0  0  0  0  0  0  0  0  0
  -19.9284   12.6876   24.8895 C   0  0  0  0  0  0  0  0  0  0  0  0
  -16.5074   16.4265   27.7276 H   0  0  0  0  0  0  0  0  0  0  0  0
  -17.8987   17.2483   26.9199 H   0  0  0  0  0  0  0  0  0  0  0  0
  -16.6524   16.3796   25.9274 H   0  0  0  0  0  0  0  0  0  0  0  0
  -17.8284   14.4901   27.7729 H   0  0  0  0  0  0  0  0  0  0  0  0
  -21.2317   12.4362   27.3086 H   0  0  0  0  0  0  0  0  0  0  0  0
  -21.8613   14.0114   26.7679 H   0  0  0  0  0  0  0  0  0  0  0  0
  -19.1000   12.6206   28.9614 H   0  0  0  0  0  0  0  0  0  0  0  0
  -18.4335   13.6654   31.0934 H   0  0  0  0  0  0  0  0  0  0  0  0
  -19.4861   15.7851   31.8277 H   0  0  0  0  0  0  0  0  0  0  0  0
  -21.2201   16.8599   30.4250 H   0  0  0  0  0  0  0  0  0  0  0  0
  -17.9135   12.3907   25.7505 H   0  0  0  0  0  0  0  0  0  0  0  0
  -19.3532   11.3930   26.5901 H   0  0  0  0  0  0  0  0  0  0  0  0
  -19.4007   13.0609   23.9857 H   0  0  0  0  0  0  0  0  0  0  0  0
  -20.8393   12.0559   24.8192 H   0  0  0  0  0  0  0  0  0  0  0  0
  1  2  1  0
  2  3  1  0
  3  4  2  0
  3  5  1  0
  5  6  1  0
  6  7  1  0
  7  8  2  0
  8  9  1  0
  9 10  2  0
 10 11  1  0
 11 12  2  0
 12 13  1  0
  5 14  1  0
 14 15  1  0
 15  5  1  0
  7 12  1  0
  1 16  1  0
  1 17  1  0
  1 18  1  0
  2 19  1  0
  6 20  1  0
  6 21  1  0
  8 22  1  0
  9 23  1  0
 10 24  1  0
 11 25  1  0
 14 26  1  0
 14 27  1  0
 15 28  1  0
 15 29  1  0
M  END
>  <CHROM.1>  (1) 
77.77561205,-42.99574022,-67.39881037,2.05596322,0.60596950,1.25883871

>  <Name>  (1) 
F503

>  <RI>  (1) 
1.69652e+07

>  <Rbt.Current_Directory>  (1) 
/data/out

>  <Rbt.Executable>  (1) 
rbdock ($Id: //depot/dev/client3/rdock/2013.1/src/exe/rbdock.cxx#4 $)

>  <Rbt.Library>  (1) 
libRbt.so (2013.1, Build901 2013/11/27)

>  <Rbt.Parameter_File>  (1) 
/python_libraries/phenodiscovery/docking/templates/RDOCK_TETHER.conf

>  <Rbt.Receptor>  (1) 
/data/out/rdock-opt/grid/rdock-grid.prm

>  <SCORE>  (1) 
-0.535097

>  <SCORE.INTER>  (1) 
-0.972727

>  <SCORE.INTER.CONST>  (1) 
1

>  <SCORE.INTER.POLAR>  (1) 
0

>  <SCORE.INTER.REPUL>  (1) 
0

>  <SCORE.INTER.ROT>  (1) 
3

>  <SCORE.INTER.VDW>  (1) 
-9.37273

>  <SCORE.INTER.norm>  (1) 
-0.0648484

>  <SCORE.INTRA>  (1) 
0.437629

>  <SCORE.INTRA.DIHEDRAL>  (1) 
0.138662

>  <SCORE.INTRA.DIHEDRAL.0>  (1) 
4.25384

>  <SCORE.INTRA.POLAR>  (1) 
0

>  <SCORE.INTRA.POLAR.0>  (1) 
0

>  <SCORE.INTRA.REPUL>  (1) 
0

>  <SCORE.INTRA.REPUL.0>  (1) 
0

>  <SCORE.INTRA.VDW>  (1) 
0.368298

>  <SCORE.INTRA.VDW.0>  (1) 
-2.69596

>  <SCORE.INTRA.norm>  (1) 
0.0291753

>  <SCORE.RESTR>  (1) 
0

>  <SCORE.RESTR.CAVITY>  (1) 
0

>  <SCORE.RESTR.norm>  (1) 
0

>  <SCORE.SYSTEM>  (1) 
0

>  <SCORE.SYSTEM.CONST>  (1) 
0

>  <SCORE.SYSTEM.DIHEDRAL>  (1) 
0

>  <SCORE.SYSTEM.norm>  (1) 
0

>  <SCORE.heavy>  (1) 
15

>  <SCORE.norm>  (1) 
-0.0356731

>  <TETHERED ATOMS>  (1) 
7,12,11,10,8,9,1,2,3,5,6

>  <skeledock_score>  (1) 
57

$$$$
