F740
     RDKit          3D

 26 28  0  0  0  0  0  0  0  0999 V2000
  -18.7402   12.4472   28.2515 O   0  0  0  0  0  0  0  0  0  0  0  0
  -19.1520   13.5990   27.9415 C   0  0  0  0  0  0  0  0  0  0  0  0
  -19.1834   13.9950   26.5635 N   0  0  0  0  0  0  0  0  0  0  0  0
  -18.6610   13.1181   25.5201 C   0  0  0  0  0  0  0  0  0  0  0  0
  -19.7332   12.6115   24.5724 C   0  0  0  0  0  0  0  0  0  0  0  0
  -18.7641   13.6938   24.1195 C   0  0  0  0  0  0  0  0  0  0  0  0
  -19.5456   14.5402   29.0111 C   0  0  0  0  0  0  0  0  0  0  0  0
  -19.1085   14.3511   30.3495 C   0  0  0  0  0  0  0  0  0  0  0  0
  -19.5070   15.2407   31.3645 C   0  0  0  0  0  0  0  0  0  0  0  0
  -20.3373   16.2993   31.0126 C   0  0  0  0  0  0  0  0  0  0  0  0
  -20.8594   17.2897   31.8219 O   0  0  0  0  0  0  0  0  0  0  0  0
  -21.6543   18.1578   31.0021 C   0  0  0  0  0  0  0  0  0  0  0  0
  -21.5590   17.6123   29.6788 O   0  0  0  0  0  0  0  0  0  0  0  0
  -20.7533   16.4915   29.7364 C   0  0  0  0  0  0  0  0  0  0  0  0
  -20.3765   15.6417   28.7015 C   0  0  0  0  0  0  0  0  0  0  0  0
  -19.3989   14.9870   26.3166 H   0  0  0  0  0  0  0  0  0  0  0  0
  -17.8155   12.4361   25.7518 H   0  0  0  0  0  0  0  0  0  0  0  0
  -19.5267   11.6091   24.1417 H   0  0  0  0  0  0  0  0  0  0  0  0
  -20.7626   12.9789   24.7732 H   0  0  0  0  0  0  0  0  0  0  0  0
  -19.2223   14.7029   24.0408 H   0  0  0  0  0  0  0  0  0  0  0  0
  -17.9832   13.3338   23.4168 H   0  0  0  0  0  0  0  0  0  0  0  0
  -18.4520   13.5297   30.6053 H   0  0  0  0  0  0  0  0  0  0  0  0
  -19.1784   15.1063   32.3867 H   0  0  0  0  0  0  0  0  0  0  0  0
  -22.7102   18.1491   31.3449 H   0  0  0  0  0  0  0  0  0  0  0  0
  -21.2421   19.1885   31.0221 H   0  0  0  0  0  0  0  0  0  0  0  0
  -20.7325   15.8203   27.6945 H   0  0  0  0  0  0  0  0  0  0  0  0
  1  2  2  0
  2  3  1  0
  3  4  1  0
  4  5  1  0
  5  6  1  0
  2  7  1  0
  7  8  2  0
  8  9  1  0
  9 10  2  0
 10 11  1  0
 11 12  1  0
 12 13  1  0
 13 14  1  0
 14 15  2  0
  6  4  1  0
  7 15  1  0
 10 14  1  0
  3 16  1  0
  4 17  1  0
  5 18  1  0
  5 19  1  0
  6 20  1  0
  6 21  1  0
  8 22  1  0
  9 23  1  0
 12 24  1  0
 12 25  1  0
 15 26  1  0
M  END
>  <CHROM.1>  (1) 
114.01059107,19.09291274,-1.20514243,-0.97196681,1.49177735

>  <Name>  (1) 
F740

>  <RI>  (1) 
3.54803e+07

>  <Rbt.Current_Directory>  (1) 
/data/out

>  <Rbt.Executable>  (1) 
rbdock ($Id: //depot/dev/client3/rdock/2013.1/src/exe/rbdock.cxx#4 $)

>  <Rbt.Library>  (1) 
libRbt.so (2013.1, Build901 2013/11/27)

>  <Rbt.Parameter_File>  (1) 
/python_libraries/phenodiscovery/docking/templates/RDOCK_TETHER.conf

>  <Rbt.Receptor>  (1) 
/data/out/rdock-opt/grid/rdock-grid.prm

>  <SCORE>  (1) 
0.135216

>  <SCORE.INTER>  (1) 
0.000965473

>  <SCORE.INTER.CONST>  (1) 
1

>  <SCORE.INTER.POLAR>  (1) 
0

>  <SCORE.INTER.REPUL>  (1) 
0

>  <SCORE.INTER.ROT>  (1) 
2

>  <SCORE.INTER.VDW>  (1) 
-7.39903

>  <SCORE.INTER.norm>  (1) 
6.43648e-05

>  <SCORE.INTRA>  (1) 
0.134251

>  <SCORE.INTRA.DIHEDRAL>  (1) 
-1.78514

>  <SCORE.INTRA.DIHEDRAL.0>  (1) 
4.7149

>  <SCORE.INTRA.POLAR>  (1) 
0

>  <SCORE.INTRA.POLAR.0>  (1) 
0

>  <SCORE.INTRA.REPUL>  (1) 
0

>  <SCORE.INTRA.REPUL.0>  (1) 
0

>  <SCORE.INTRA.VDW>  (1) 
1.02682

>  <SCORE.INTRA.VDW.0>  (1) 
-1.50626

>  <SCORE.INTRA.norm>  (1) 
0.00895005

>  <SCORE.RESTR>  (1) 
0

>  <SCORE.RESTR.CAVITY>  (1) 
0

>  <SCORE.RESTR.norm>  (1) 
0

>  <SCORE.SYSTEM>  (1) 
0

>  <SCORE.SYSTEM.CONST>  (1) 
0

>  <SCORE.SYSTEM.DIHEDRAL>  (1) 
0

>  <SCORE.SYSTEM.norm>  (1) 
0

>  <SCORE.heavy>  (1) 
15

>  <SCORE.norm>  (1) 
0.00901442

>  <TETHERED ATOMS>  (1) 
2,7,3,10,4,6,8,9,15,14

>  <skeledock_score>  (1) 
43

$$$$
