F618
     RDKit          3D

 26 26  0  0  0  0  0  0  0  0999 V2000
  -18.1359   13.5663   28.5679 C   0  0  0  0  0  0  0  0  0  0  0  0
  -19.1084   14.6285   28.0459 C   0  0  0  0  0  0  0  0  0  0  0  0
  -18.5249   15.4250   26.8622 C   0  0  0  0  0  0  0  0  0  0  0  0
  -19.4781   16.2810   26.2881 O   0  0  0  0  0  0  0  0  0  0  0  0
  -20.4158   14.0285   27.7107 N   0  0  0  0  0  0  0  0  0  0  0  0
  -20.5444   13.0661   26.6146 C   0  0  0  0  0  0  0  0  0  0  0  0
  -21.6008   14.3417   28.4576 C   0  0  0  0  0  0  0  0  0  0  0  0
  -22.4978   15.2332   27.9531 N   0  0  0  0  0  0  0  0  0  0  0  0
  -23.6106   15.6014   28.6419 C   0  0  0  0  0  0  0  0  0  0  0  0
  -23.8521   15.0759   29.9121 C   0  0  0  0  0  0  0  0  0  0  0  0
  -22.9407   14.1704   30.4601 C   0  0  0  0  0  0  0  0  0  0  0  0
  -21.8038   13.8021   29.7360 C   0  0  0  0  0  0  0  0  0  0  0  0
  -20.9047   12.9423   30.2763 F   0  0  0  0  0  0  0  0  0  0  0  0
  -18.5672   13.0717   29.4640 H   0  0  0  0  0  0  0  0  0  0  0  0
  -17.9372   12.7924   27.7972 H   0  0  0  0  0  0  0  0  0  0  0  0
  -17.1732   14.0387   28.8576 H   0  0  0  0  0  0  0  0  0  0  0  0
  -19.2390   15.3607   28.8731 H   0  0  0  0  0  0  0  0  0  0  0  0
  -18.1204   14.7213   26.0975 H   0  0  0  0  0  0  0  0  0  0  0  0
  -17.6707   16.0363   27.2234 H   0  0  0  0  0  0  0  0  0  0  0  0
  -19.7749   16.9045   27.0011 H   0  0  0  0  0  0  0  0  0  0  0  0
  -20.9072   12.0945   27.0115 H   0  0  0  0  0  0  0  0  0  0  0  0
  -19.5759   12.8940   26.1004 H   0  0  0  0  0  0  0  0  0  0  0  0
  -21.2711   13.4465   25.8660 H   0  0  0  0  0  0  0  0  0  0  0  0
  -24.3041   16.3079   28.2058 H   0  0  0  0  0  0  0  0  0  0  0  0
  -24.7341   15.3685   30.4669 H   0  0  0  0  0  0  0  0  0  0  0  0
  -23.1124   13.7607   31.4471 H   0  0  0  0  0  0  0  0  0  0  0  0
  1  2  1  0
  2  3  1  0
  3  4  1  0
  2  5  1  0
  5  6  1  0
  5  7  1  0
  7  8  2  0
  8  9  1  0
  9 10  2  0
 10 11  1  0
 11 12  2  0
 12 13  1  0
  7 12  1  0
  1 14  1  0
  1 15  1  0
  1 16  1  0
  2 17  1  0
  3 18  1  0
  3 19  1  0
  4 20  1  0
  6 21  1  0
  6 22  1  0
  6 23  1  0
  9 24  1  0
 10 25  1  0
 11 26  1  0
M  END
>  <CHROM.1>  (1) 
172.80484769,59.61583864,-65.74906405,101.08325899,-3.05040870,0.26406338
-0.90325245

>  <Name>  (1) 
F618

>  <RI>  (1) 
2.24714e+07

>  <Rbt.Current_Directory>  (1) 
/data/out

>  <Rbt.Executable>  (1) 
rbdock ($Id: //depot/dev/client3/rdock/2013.1/src/exe/rbdock.cxx#4 $)

>  <Rbt.Library>  (1) 
libRbt.so (2013.1, Build901 2013/11/27)

>  <Rbt.Parameter_File>  (1) 
/python_libraries/phenodiscovery/docking/templates/RDOCK_TETHER.conf

>  <Rbt.Receptor>  (1) 
/data/out/rdock-opt/grid/rdock-grid.prm

>  <SCORE>  (1) 
-1.81446

>  <SCORE.INTER>  (1) 
-0.362678

>  <SCORE.INTER.CONST>  (1) 
1

>  <SCORE.INTER.POLAR>  (1) 
0

>  <SCORE.INTER.REPUL>  (1) 
0

>  <SCORE.INTER.ROT>  (1) 
3

>  <SCORE.INTER.VDW>  (1) 
-8.76268

>  <SCORE.INTER.norm>  (1) 
-0.0278983

>  <SCORE.INTRA>  (1) 
-1.45178

>  <SCORE.INTRA.DIHEDRAL>  (1) 
-3.71437

>  <SCORE.INTRA.DIHEDRAL.0>  (1) 
18.8263

>  <SCORE.INTRA.POLAR>  (1) 
0

>  <SCORE.INTRA.POLAR.0>  (1) 
0

>  <SCORE.INTRA.REPUL>  (1) 
0

>  <SCORE.INTRA.REPUL.0>  (1) 
0

>  <SCORE.INTRA.VDW>  (1) 
0.405404

>  <SCORE.INTRA.VDW.0>  (1) 
-2.29576

>  <SCORE.INTRA.norm>  (1) 
-0.111676

>  <SCORE.RESTR>  (1) 
0

>  <SCORE.RESTR.CAVITY>  (1) 
0

>  <SCORE.RESTR.norm>  (1) 
0

>  <SCORE.SYSTEM>  (1) 
0

>  <SCORE.SYSTEM.CONST>  (1) 
0

>  <SCORE.SYSTEM.DIHEDRAL>  (1) 
0

>  <SCORE.SYSTEM.norm>  (1) 
0

>  <SCORE.heavy>  (1) 
13

>  <SCORE.norm>  (1) 
-0.139574

>  <TETHERED ATOMS>  (1) 
7,2,10,9,8,1,3

>  <skeledock_score>  (1) 
32

$$$$
