F687
     RDKit          3D

 24 25  0  0  0  0  0  0  0  0999 V2000
  -17.1982   14.6641   30.0400 F   0  0  0  0  0  0  0  0  0  0  0  0
  -18.5386   14.4584   29.9842 C   0  0  0  0  0  0  0  0  0  0  0  0
  -19.2437   14.2380   31.1713 C   0  0  0  0  0  0  0  0  0  0  0  0
  -20.6248   14.0362   31.1401 C   0  0  0  0  0  0  0  0  0  0  0  0
  -21.3055   14.0545   29.9212 C   0  0  0  0  0  0  0  0  0  0  0  0
  -20.6077   14.2785   28.7300 C   0  0  0  0  0  0  0  0  0  0  0  0
  -19.2136   14.4850   28.7496 C   0  0  0  0  0  0  0  0  0  0  0  0
  -18.4684   14.7207   27.5399 N   0  0  0  0  0  0  0  0  0  0  0  0
  -19.1091   15.0027   26.2519 C   0  0  0  0  0  0  0  0  0  0  0  0
  -19.7219   13.7768   25.6316 C   0  0  0  0  0  0  0  0  0  0  0  0
  -19.5847   12.4919   26.1213 C   0  0  0  0  0  0  0  0  0  0  0  0
  -20.3064   11.7111   25.2446 C   0  0  0  0  0  0  0  0  0  0  0  0
  -20.8343   12.5041   24.2959 N   0  0  0  0  0  0  0  0  0  0  0  0
  -20.4865   13.7604   24.5205 N   0  0  0  0  0  0  0  0  0  0  0  0
  -18.7190   14.2242   32.1180 H   0  0  0  0  0  0  0  0  0  0  0  0
  -21.1677   13.8648   32.0607 H   0  0  0  0  0  0  0  0  0  0  0  0
  -22.3760   13.8958   29.8986 H   0  0  0  0  0  0  0  0  0  0  0  0
  -21.1601   14.2836   27.8003 H   0  0  0  0  0  0  0  0  0  0  0  0
  -17.4270   14.7514   27.6136 H   0  0  0  0  0  0  0  0  0  0  0  0
  -19.9069   15.7614   26.3988 H   0  0  0  0  0  0  0  0  0  0  0  0
  -18.3520   15.4079   25.5464 H   0  0  0  0  0  0  0  0  0  0  0  0
  -19.0356   12.1691   26.9959 H   0  0  0  0  0  0  0  0  0  0  0  0
  -20.4378   10.6383   25.2949 H   0  0  0  0  0  0  0  0  0  0  0  0
  -21.4300   12.1934   23.4972 H   0  0  0  0  0  0  0  0  0  0  0  0
  1  2  1  0
  2  3  2  0
  3  4  1  0
  4  5  2  0
  5  6  1  0
  6  7  2  0
  7  8  1  0
  8  9  1  0
  9 10  1  0
 10 11  1  0
 11 12  2  0
 12 13  1  0
 13 14  1  0
  2  7  1  0
 10 14  2  0
  3 15  1  0
  4 16  1  0
  5 17  1  0
  6 18  1  0
  8 19  1  0
  9 20  1  0
  9 21  1  0
 11 22  1  0
 12 23  1  0
 13 24  1  0
M  END
>  <CHROM.1>  (1) 
-168.71076631,-74.57058081,-6.83155350,-1.42919539,-0.21600491,-1.58497766

>  <Name>  (1) 
F687

>  <RI>  (1) 
1.2517e+07

>  <Rbt.Current_Directory>  (1) 
/data/out

>  <Rbt.Executable>  (1) 
rbdock ($Id: //depot/dev/client3/rdock/2013.1/src/exe/rbdock.cxx#4 $)

>  <Rbt.Library>  (1) 
libRbt.so (2013.1, Build901 2013/11/27)

>  <Rbt.Parameter_File>  (1) 
/python_libraries/phenodiscovery/docking/templates/RDOCK_TETHER.conf

>  <Rbt.Receptor>  (1) 
/data/out/rdock-opt/grid/rdock-grid.prm

>  <SCORE>  (1) 
-6.61987

>  <SCORE.INTER>  (1) 
-4.8817

>  <SCORE.INTER.CONST>  (1) 
1

>  <SCORE.INTER.POLAR>  (1) 
-0.958857

>  <SCORE.INTER.REPUL>  (1) 
0

>  <SCORE.INTER.ROT>  (1) 
3

>  <SCORE.INTER.VDW>  (1) 
-10.0216

>  <SCORE.INTER.norm>  (1) 
-0.348693

>  <SCORE.INTRA>  (1) 
-1.73817

>  <SCORE.INTRA.DIHEDRAL>  (1) 
-2.544

>  <SCORE.INTRA.DIHEDRAL.0>  (1) 
5.44297

>  <SCORE.INTRA.POLAR>  (1) 
0.00861746

>  <SCORE.INTRA.POLAR.0>  (1) 
-0.00861746

>  <SCORE.INTRA.REPUL>  (1) 
0

>  <SCORE.INTRA.REPUL.0>  (1) 
0

>  <SCORE.INTRA.VDW>  (1) 
-0.495467

>  <SCORE.INTRA.VDW.0>  (1) 
-0.763156

>  <SCORE.INTRA.norm>  (1) 
-0.124155

>  <SCORE.RESTR>  (1) 
0

>  <SCORE.RESTR.CAVITY>  (1) 
0

>  <SCORE.RESTR.norm>  (1) 
0

>  <SCORE.SYSTEM>  (1) 
0

>  <SCORE.SYSTEM.CONST>  (1) 
0

>  <SCORE.SYSTEM.DIHEDRAL>  (1) 
0

>  <SCORE.SYSTEM.norm>  (1) 
0

>  <SCORE.heavy>  (1) 
14

>  <SCORE.norm>  (1) 
-0.472848

>  <TETHERED ATOMS>  (1) 
2,7,6,5,4,1,8,3,9,10,14

>  <skeledock_score>  (1) 
50

$$$$
