F616
     RDKit          3D

 26 26  0  0  0  0  0  0  0  0999 V2000
  -20.6121   12.2851   24.5423 C   0  0  0  0  0  0  0  0  0  0  0  0
  -19.9801   13.8345   25.1545 S   0  0  0  0  0  0  0  0  0  0  0  0
  -20.9242   14.9419   24.7778 O   0  0  0  0  0  0  0  0  0  0  0  0
  -18.6432   14.0963   24.5205 O   0  0  0  0  0  0  0  0  0  0  0  0
  -19.7845   13.7909   26.8806 N   0  0  0  0  0  0  0  0  0  0  0  0
  -18.3651   13.6703   27.2150 C   0  0  0  0  0  0  0  0  0  0  0  0
  -18.2019   13.4047   28.7147 C   0  0  0  0  0  0  0  0  0  0  0  0
  -18.9259   14.4444   29.5272 C   0  0  0  0  0  0  0  0  0  0  0  0
  -20.2744   14.2705   29.8804 C   0  0  0  0  0  0  0  0  0  0  0  0
  -20.9294   15.2387   30.6476 C   0  0  0  0  0  0  0  0  0  0  0  0
  -20.2448   16.3826   31.0675 C   0  0  0  0  0  0  0  0  0  0  0  0
  -20.8811   17.3166   31.8166 F   0  0  0  0  0  0  0  0  0  0  0  0
  -18.9075   16.5672   30.7099 C   0  0  0  0  0  0  0  0  0  0  0  0
  -18.2526   15.6096   29.9342 C   0  0  0  0  0  0  0  0  0  0  0  0
  -20.0274   11.4478   24.9758 H   0  0  0  0  0  0  0  0  0  0  0  0
  -21.6803   12.1760   24.8210 H   0  0  0  0  0  0  0  0  0  0  0  0
  -20.5239   12.2609   23.4366 H   0  0  0  0  0  0  0  0  0  0  0  0
  -20.1295   14.7097   27.2433 H   0  0  0  0  0  0  0  0  0  0  0  0
  -17.9118   12.8240   26.6531 H   0  0  0  0  0  0  0  0  0  0  0  0
  -17.8339   14.6078   26.9416 H   0  0  0  0  0  0  0  0  0  0  0  0
  -17.1175   13.3944   28.9616 H   0  0  0  0  0  0  0  0  0  0  0  0
  -18.6126   12.4035   28.9699 H   0  0  0  0  0  0  0  0  0  0  0  0
  -20.8155   13.3849   29.5712 H   0  0  0  0  0  0  0  0  0  0  0  0
  -21.9671   15.0981   30.9214 H   0  0  0  0  0  0  0  0  0  0  0  0
  -18.3796   17.4572   31.0278 H   0  0  0  0  0  0  0  0  0  0  0  0
  -17.2194   15.7742   29.6544 H   0  0  0  0  0  0  0  0  0  0  0  0
  1  2  1  0
  2  3  2  0
  2  4  2  0
  2  5  1  0
  5  6  1  0
  6  7  1  0
  7  8  1  0
  8  9  2  0
  9 10  1  0
 10 11  2  0
 11 12  1  0
 11 13  1  0
 13 14  2  0
  8 14  1  0
  1 15  1  0
  1 16  1  0
  1 17  1  0
  5 18  1  0
  6 19  1  0
  6 20  1  0
  7 21  1  0
  7 22  1  0
  9 23  1  0
 10 24  1  0
 13 25  1  0
 14 26  1  0
M  END
>  <CHROM.1>  (1) 
105.14528710,-170.91241274,-53.49335280,88.73607512,1.60811511,0.35742221
-1.99148319

>  <Name>  (1) 
F616

>  <RI>  (1) 
3.10596e+07

>  <Rbt.Current_Directory>  (1) 
/data/out

>  <Rbt.Executable>  (1) 
rbdock ($Id: //depot/dev/client3/rdock/2013.1/src/exe/rbdock.cxx#4 $)

>  <Rbt.Library>  (1) 
libRbt.so (2013.1, Build901 2013/11/27)

>  <Rbt.Parameter_File>  (1) 
/python_libraries/phenodiscovery/docking/templates/RDOCK_TETHER.conf

>  <Rbt.Receptor>  (1) 
/data/out/rdock-opt/grid/rdock-grid.prm

>  <SCORE>  (1) 
0.492167

>  <SCORE.INTER>  (1) 
-0.22423

>  <SCORE.INTER.CONST>  (1) 
1

>  <SCORE.INTER.POLAR>  (1) 
0

>  <SCORE.INTER.REPUL>  (1) 
0

>  <SCORE.INTER.ROT>  (1) 
4

>  <SCORE.INTER.VDW>  (1) 
-9.62423

>  <SCORE.INTER.norm>  (1) 
-0.0160164

>  <SCORE.INTRA>  (1) 
0.716398

>  <SCORE.INTRA.DIHEDRAL>  (1) 
2.17547

>  <SCORE.INTRA.DIHEDRAL.0>  (1) 
0.884228

>  <SCORE.INTRA.POLAR>  (1) 
0

>  <SCORE.INTRA.POLAR.0>  (1) 
0

>  <SCORE.INTRA.REPUL>  (1) 
0

>  <SCORE.INTRA.REPUL.0>  (1) 
0

>  <SCORE.INTRA.VDW>  (1) 
-0.371338

>  <SCORE.INTRA.VDW.0>  (1) 
-0.467245

>  <SCORE.INTRA.norm>  (1) 
0.0511713

>  <SCORE.RESTR>  (1) 
0

>  <SCORE.RESTR.CAVITY>  (1) 
0

>  <SCORE.RESTR.norm>  (1) 
0

>  <SCORE.SYSTEM>  (1) 
0

>  <SCORE.SYSTEM.CONST>  (1) 
0

>  <SCORE.SYSTEM.DIHEDRAL>  (1) 
0

>  <SCORE.SYSTEM.norm>  (1) 
0

>  <SCORE.heavy>  (1) 
14

>  <SCORE.norm>  (1) 
0.0351548

>  <TETHERED ATOMS>  (1) 
5,6,7,8,9,10,1,2,11,13

>  <skeledock_score>  (1) 
48

$$$$
