F199
     RDKit          3D

 25 26  0  0  0  0  0  0  0  0999 V2000
  -12.1288   19.6324   26.5027 C   0  0  0  0  0  0  0  0  0  0  0  0
  -13.6097   19.4743   26.4327 C   0  0  0  0  0  0  0  0  0  0  0  0
  -14.3023   18.2835   26.4422 C   0  0  0  0  0  0  0  0  0  0  0  0
  -15.6224   18.6815   26.3599 C   0  0  0  0  0  0  0  0  0  0  0  0
  -15.6883   20.0270   26.3048 N   0  0  0  0  0  0  0  0  0  0  0  0
  -14.4643   20.4672   26.3511 O   0  0  0  0  0  0  0  0  0  0  0  0
  -16.7950   17.7924   26.3294 C   0  0  0  0  0  0  0  0  0  0  0  0
  -17.9361   18.2711   26.5680 O   0  0  0  0  0  0  0  0  0  0  0  0
  -16.6397   16.4022   26.0001 N   0  0  0  0  0  0  0  0  0  0  0  0
  -17.6731   15.4147   26.1354 C   0  0  0  0  0  0  0  0  0  0  0  0
  -17.6991   14.1202   25.6434 C   0  0  0  0  0  0  0  0  0  0  0  0
  -18.8835   13.5611   25.9645 N   0  0  0  0  0  0  0  0  0  0  0  0
  -19.5938   14.4673   26.6203 N   0  0  0  0  0  0  0  0  0  0  0  0
  -20.9154   14.2160   27.1782 C   0  0  0  0  0  0  0  0  0  0  0  0
  -18.8902   15.6073   26.7488 C   0  0  0  0  0  0  0  0  0  0  0  0
  -11.6574   19.1190   25.6388 H   0  0  0  0  0  0  0  0  0  0  0  0
  -11.8602   20.7092   26.4756 H   0  0  0  0  0  0  0  0  0  0  0  0
  -11.7501   19.1876   27.4464 H   0  0  0  0  0  0  0  0  0  0  0  0
  -13.9043   17.2788   26.4999 H   0  0  0  0  0  0  0  0  0  0  0  0
  -15.7253   16.0847   25.6068 H   0  0  0  0  0  0  0  0  0  0  0  0
  -16.9317   13.6155   25.0743 H   0  0  0  0  0  0  0  0  0  0  0  0
  -20.8218   13.9614   28.2545 H   0  0  0  0  0  0  0  0  0  0  0  0
  -21.3998   13.3709   26.6447 H   0  0  0  0  0  0  0  0  0  0  0  0
  -21.5531   15.1188   27.0682 H   0  0  0  0  0  0  0  0  0  0  0  0
  -19.2354   16.5031   27.2492 H   0  0  0  0  0  0  0  0  0  0  0  0
  1  2  1  0
  2  3  2  0
  3  4  1  0
  4  5  2  0
  5  6  1  0
  4  7  1  0
  7  8  2  0
  7  9  1  0
  9 10  1  0
 10 11  1  0
 11 12  2  0
 12 13  1  0
 13 14  1  0
 13 15  1  0
  6  2  1  0
 10 15  2  0
  1 16  1  0
  1 17  1  0
  1 18  1  0
  3 19  1  0
  9 20  1  0
 11 21  1  0
 14 22  1  0
 14 23  1  0
 14 24  1  0
 15 25  1  0
M  END
>  <CHROM.1>  (1) 
163.43154889,168.02596182,0.02285446,0.40653882,0.36664120

>  <Name>  (1) 
F199

>  <RI>  (1) 
3.284e+07

>  <Rbt.Current_Directory>  (1) 
/data/out

>  <Rbt.Executable>  (1) 
rbdock ($Id: //depot/dev/client3/rdock/2013.1/src/exe/rbdock.cxx#4 $)

>  <Rbt.Library>  (1) 
libRbt.so (2013.1, Build901 2013/11/27)

>  <Rbt.Parameter_File>  (1) 
/python_libraries/phenodiscovery/docking/templates/RDOCK_TETHER.conf

>  <Rbt.Receptor>  (1) 
/data/out/rdock-opt/grid/rdock-grid.prm

>  <SCORE>  (1) 
1.1522

>  <SCORE.INTER>  (1) 
-1.25926

>  <SCORE.INTER.CONST>  (1) 
1

>  <SCORE.INTER.POLAR>  (1) 
0

>  <SCORE.INTER.REPUL>  (1) 
0

>  <SCORE.INTER.ROT>  (1) 
2

>  <SCORE.INTER.VDW>  (1) 
-8.65926

>  <SCORE.INTER.norm>  (1) 
-0.0839504

>  <SCORE.INTRA>  (1) 
0.779445

>  <SCORE.INTRA.DIHEDRAL>  (1) 
-0.279559

>  <SCORE.INTRA.DIHEDRAL.0>  (1) 
2.72599

>  <SCORE.INTRA.POLAR>  (1) 
0

>  <SCORE.INTRA.POLAR.0>  (1) 
0

>  <SCORE.INTRA.REPUL>  (1) 
0

>  <SCORE.INTRA.REPUL.0>  (1) 
0

>  <SCORE.INTRA.VDW>  (1) 
0.919225

>  <SCORE.INTRA.VDW.0>  (1) 
-0.805033

>  <SCORE.INTRA.norm>  (1) 
0.051963

>  <SCORE.RESTR>  (1) 
1.63201

>  <SCORE.RESTR.CAVITY>  (1) 
1.63201

>  <SCORE.RESTR.norm>  (1) 
0.108801

>  <SCORE.SYSTEM>  (1) 
0

>  <SCORE.SYSTEM.CONST>  (1) 
0

>  <SCORE.SYSTEM.DIHEDRAL>  (1) 
0

>  <SCORE.SYSTEM.norm>  (1) 
0

>  <SCORE.heavy>  (1) 
15

>  <SCORE.norm>  (1) 
0.0768132

>  <TETHERED ATOMS>  (1) 
10,15,13,14,11,12

>  <skeledock_score>  (1) 
32

$$$$
