F488
     RDKit          3D

 38 39  0  0  0  0  0  0  0  0999 V2000
  -15.8941   12.9720   22.1546 C   0  0  0  0  0  0  0  0  0  0  0  0
  -17.2498   12.9857   22.7247 N   0  0  0  0  0  0  0  0  0  0  0  0
  -17.6259   11.6264   23.1603 C   0  0  0  0  0  0  0  0  0  0  0  0
  -19.0635   11.6256   23.6804 C   0  0  0  0  0  0  0  0  0  0  0  0
  -19.2053   12.6342   24.7378 N   0  0  0  0  0  0  0  0  0  0  0  0
  -18.7279   13.9901   24.4339 C   0  0  0  0  0  0  0  0  0  0  0  0
  -17.3072   13.9238   23.8634 C   0  0  0  0  0  0  0  0  0  0  0  0
  -19.8790   12.3157   25.9760 C   0  0  0  0  0  0  0  0  0  0  0  0
  -19.9808   11.1126   26.3422 O   0  0  0  0  0  0  0  0  0  0  0  0
  -20.4431   13.3920   26.8599 C   0  0  0  0  0  0  0  0  0  0  0  0
  -19.4498   13.8404   27.7785 O   0  0  0  0  0  0  0  0  0  0  0  0
  -19.6776   14.7638   28.8082 C   0  0  0  0  0  0  0  0  0  0  0  0
  -19.2644   14.4267   30.1017 C   0  0  0  0  0  0  0  0  0  0  0  0
  -19.4483   15.3186   31.1615 C   0  0  0  0  0  0  0  0  0  0  0  0
  -20.0463   16.5674   30.9386 C   0  0  0  0  0  0  0  0  0  0  0  0
  -20.2814   17.5082   32.0828 C   0  0  0  0  0  0  0  0  0  0  0  0
  -20.4867   16.8989   29.6486 C   0  0  0  0  0  0  0  0  0  0  0  0
  -20.2980   16.0082   28.5870 C   0  0  0  0  0  0  0  0  0  0  0  0
  -15.6192   13.9878   21.7975 H   0  0  0  0  0  0  0  0  0  0  0  0
  -15.1430   12.6353   22.9041 H   0  0  0  0  0  0  0  0  0  0  0  0
  -15.8564   12.2941   21.2748 H   0  0  0  0  0  0  0  0  0  0  0  0
  -16.9418   11.2601   23.9602 H   0  0  0  0  0  0  0  0  0  0  0  0
  -17.5673   10.9215   22.3015 H   0  0  0  0  0  0  0  0  0  0  0  0
  -19.3223   10.6075   24.0410 H   0  0  0  0  0  0  0  0  0  0  0  0
  -19.7530   11.8769   22.8453 H   0  0  0  0  0  0  0  0  0  0  0  0
  -19.4086   14.4607   23.6920 H   0  0  0  0  0  0  0  0  0  0  0  0
  -18.7028   14.6293   25.3406 H   0  0  0  0  0  0  0  0  0  0  0  0
  -17.0206   14.9454   23.5283 H   0  0  0  0  0  0  0  0  0  0  0  0
  -16.6023   13.6125   24.6686 H   0  0  0  0  0  0  0  0  0  0  0  0
  -20.7711   14.2425   26.2247 H   0  0  0  0  0  0  0  0  0  0  0  0
  -21.3083   12.9865   27.4271 H   0  0  0  0  0  0  0  0  0  0  0  0
  -18.7937   13.4692   30.2855 H   0  0  0  0  0  0  0  0  0  0  0  0
  -19.1248   15.0351   32.1556 H   0  0  0  0  0  0  0  0  0  0  0  0
  -19.4928   17.3893   32.8562 H   0  0  0  0  0  0  0  0  0  0  0  0
  -21.2707   17.2952   32.5387 H   0  0  0  0  0  0  0  0  0  0  0  0
  -20.2627   18.5625   31.7333 H   0  0  0  0  0  0  0  0  0  0  0  0
  -20.9731   17.8489   29.4632 H   0  0  0  0  0  0  0  0  0  0  0  0
  -20.6380   16.2948   27.6011 H   0  0  0  0  0  0  0  0  0  0  0  0
  1  2  1  0
  2  3  1  0
  3  4  1  0
  4  5  1  0
  5  6  1  0
  6  7  1  0
  5  8  1  0
  8  9  2  0
  8 10  1  0
 10 11  1  0
 11 12  1  0
 12 13  2  0
 13 14  1  0
 14 15  2  0
 15 16  1  0
 15 17  1  0
 17 18  2  0
  7  2  1  0
 12 18  1  0
  1 19  1  0
  1 20  1  0
  1 21  1  0
  3 22  1  0
  3 23  1  0
  4 24  1  0
  4 25  1  0
  6 26  1  0
  6 27  1  0
  7 28  1  0
  7 29  1  0
 10 30  1  0
 10 31  1  0
 13 32  1  0
 14 33  1  0
 16 34  1  0
 16 35  1  0
 16 36  1  0
 17 37  1  0
 18 38  1  0
M  END
>  <CHROM.1>  (1) 
-88.52225675,-174.88720891,129.10856804,-1.55816119,1.15775787,-2.38259016

>  <Name>  (1) 
F488

>  <RI>  (1) 
3.69127e+07

>  <Rbt.Current_Directory>  (1) 
/data/out

>  <Rbt.Executable>  (1) 
rbdock ($Id: //depot/dev/client3/rdock/2013.1/src/exe/rbdock.cxx#4 $)

>  <Rbt.Library>  (1) 
libRbt.so (2013.1, Build901 2013/11/27)

>  <Rbt.Parameter_File>  (1) 
/python_libraries/phenodiscovery/docking/templates/RDOCK_TETHER.conf

>  <Rbt.Receptor>  (1) 
/data/out/rdock-opt/grid/rdock-grid.prm

>  <SCORE>  (1) 
4.54624

>  <SCORE.INTER>  (1) 
3.52182

>  <SCORE.INTER.CONST>  (1) 
1

>  <SCORE.INTER.POLAR>  (1) 
0

>  <SCORE.INTER.REPUL>  (1) 
0

>  <SCORE.INTER.ROT>  (1) 
3

>  <SCORE.INTER.VDW>  (1) 
-4.87818

>  <SCORE.INTER.norm>  (1) 
0.195657

>  <SCORE.INTRA>  (1) 
1.02443

>  <SCORE.INTRA.DIHEDRAL>  (1) 
2.95688

>  <SCORE.INTRA.DIHEDRAL.0>  (1) 
1.38571

>  <SCORE.INTRA.POLAR>  (1) 
0

>  <SCORE.INTRA.POLAR.0>  (1) 
0

>  <SCORE.INTRA.REPUL>  (1) 
0

>  <SCORE.INTRA.REPUL.0>  (1) 
0

>  <SCORE.INTRA.VDW>  (1) 
-0.454015

>  <SCORE.INTRA.VDW.0>  (1) 
-0.0912353

>  <SCORE.INTRA.norm>  (1) 
0.0569125

>  <SCORE.RESTR>  (1) 
0

>  <SCORE.RESTR.CAVITY>  (1) 
0

>  <SCORE.RESTR.norm>  (1) 
0

>  <SCORE.SYSTEM>  (1) 
0

>  <SCORE.SYSTEM.CONST>  (1) 
0

>  <SCORE.SYSTEM.DIHEDRAL>  (1) 
0

>  <SCORE.SYSTEM.norm>  (1) 
0

>  <SCORE.heavy>  (1) 
18

>  <SCORE.norm>  (1) 
0.252569

>  <TETHERED ATOMS>  (1) 
12,13,14,15,17,18,8,10,11,9

>  <skeledock_score>  (1) 
56

$$$$
