F421
     RDKit          3D

 19 19  0  0  0  0  0  0  0  0999 V2000
  -18.3197   12.2854   25.7836 C   0  0  0  0  0  0  0  0  0  0  0  0
  -18.7139   13.1367   26.9069 N   0  0  0  0  0  0  0  0  0  0  0  0
  -18.0347   12.9523   28.1904 C   0  0  0  0  0  0  0  0  0  0  0  0
  -19.7104   14.1610   26.7271 C   0  0  0  0  0  0  0  0  0  0  0  0
  -19.7375   14.8137   25.6486 O   0  0  0  0  0  0  0  0  0  0  0  0
  -20.7124   14.4685   27.7679 C   0  0  0  0  0  0  0  0  0  0  0  0
  -21.1751   15.7070   28.1807 C   0  0  0  0  0  0  0  0  0  0  0  0
  -22.0327   15.5394   29.2066 N   0  0  0  0  0  0  0  0  0  0  0  0
  -22.1213   14.2423   29.4529 N   0  0  0  0  0  0  0  0  0  0  0  0
  -21.3297   13.5635   28.6053 C   0  0  0  0  0  0  0  0  0  0  0  0
  -18.9367   12.4910   24.8829 H   0  0  0  0  0  0  0  0  0  0  0  0
  -18.4550   11.2181   26.0591 H   0  0  0  0  0  0  0  0  0  0  0  0
  -17.2530   12.4648   25.5327 H   0  0  0  0  0  0  0  0  0  0  0  0
  -18.2332   13.8036   28.8758 H   0  0  0  0  0  0  0  0  0  0  0  0
  -16.9369   12.8958   28.0322 H   0  0  0  0  0  0  0  0  0  0  0  0
  -18.3783   12.0091   28.6639 H   0  0  0  0  0  0  0  0  0  0  0  0
  -20.8880   16.6713   27.7853 H   0  0  0  0  0  0  0  0  0  0  0  0
  -22.7150   13.8265   30.2040 H   0  0  0  0  0  0  0  0  0  0  0  0
  -21.2068   12.4882   28.6054 H   0  0  0  0  0  0  0  0  0  0  0  0
  1  2  1  0
  2  3  1  0
  2  4  1  0
  4  5  2  0
  4  6  1  0
  6  7  1  0
  7  8  2  0
  8  9  1  0
  9 10  1  0
  6 10  2  0
  1 11  1  0
  1 12  1  0
  1 13  1  0
  3 14  1  0
  3 15  1  0
  3 16  1  0
  7 17  1  0
  9 18  1  0
 10 19  1  0
M  END
>  <CHROM.1>  (1) 
138.89352007,-0.31147278,0.77463271,-0.22037234

>  <Name>  (1) 
F421

>  <RI>  (1) 
3.6151e+07

>  <Rbt.Current_Directory>  (1) 
/data/out

>  <Rbt.Executable>  (1) 
rbdock ($Id: //depot/dev/client3/rdock/2013.1/src/exe/rbdock.cxx#4 $)

>  <Rbt.Library>  (1) 
libRbt.so (2013.1, Build901 2013/11/27)

>  <Rbt.Parameter_File>  (1) 
/python_libraries/phenodiscovery/docking/templates/RDOCK_TETHER.conf

>  <Rbt.Receptor>  (1) 
/data/out/rdock-opt/grid/rdock-grid.prm

>  <SCORE>  (1) 
-0.23499

>  <SCORE.INTER>  (1) 
-1.52544

>  <SCORE.INTER.CONST>  (1) 
1

>  <SCORE.INTER.POLAR>  (1) 
-0.266275

>  <SCORE.INTER.REPUL>  (1) 
0

>  <SCORE.INTER.ROT>  (1) 
1

>  <SCORE.INTER.VDW>  (1) 
-7.02011

>  <SCORE.INTER.norm>  (1) 
-0.152544

>  <SCORE.INTRA>  (1) 
1.29045

>  <SCORE.INTRA.DIHEDRAL>  (1) 
3.67769

>  <SCORE.INTRA.DIHEDRAL.0>  (1) 
0.838105

>  <SCORE.INTRA.POLAR>  (1) 
0

>  <SCORE.INTRA.POLAR.0>  (1) 
0

>  <SCORE.INTRA.REPUL>  (1) 
0

>  <SCORE.INTRA.REPUL.0>  (1) 
0

>  <SCORE.INTRA.VDW>  (1) 
-0.548394

>  <SCORE.INTRA.VDW.0>  (1) 
-0.821608

>  <SCORE.INTRA.norm>  (1) 
0.129045

>  <SCORE.RESTR>  (1) 
0

>  <SCORE.RESTR.CAVITY>  (1) 
0

>  <SCORE.RESTR.norm>  (1) 
0

>  <SCORE.SYSTEM>  (1) 
0

>  <SCORE.SYSTEM.CONST>  (1) 
0

>  <SCORE.SYSTEM.DIHEDRAL>  (1) 
0

>  <SCORE.SYSTEM.norm>  (1) 
0

>  <SCORE.heavy>  (1) 
10

>  <SCORE.norm>  (1) 
-0.023499

>  <TETHERED ATOMS>  (1) 
4,6,10,9,1,2,8,7

>  <skeledock_score>  (1) 
20

$$$$
