F579
     RDKit          3D

 29 31  0  0  0  0  0  0  0  0999 V2000
  -21.6816   17.9413   32.8409 C   0  0  0  0  0  0  0  0  0  0  0  0
  -20.9070   16.7466   32.8359 O   0  0  0  0  0  0  0  0  0  0  0  0
  -20.5429   16.0455   31.6771 C   0  0  0  0  0  0  0  0  0  0  0  0
  -19.7497   14.8868   31.8191 C   0  0  0  0  0  0  0  0  0  0  0  0
  -19.3510   14.1431   30.6971 C   0  0  0  0  0  0  0  0  0  0  0  0
  -19.7528   14.5705   29.4332 C   0  0  0  0  0  0  0  0  0  0  0  0
  -19.4099   13.9556   28.2743 N   0  0  0  0  0  0  0  0  0  0  0  0
  -19.9346   14.6114   27.2102 C   0  0  0  0  0  0  0  0  0  0  0  0
  -19.6719   14.2496   25.8501 N   0  0  0  0  0  0  0  0  0  0  0  0
  -18.8435   13.1400   25.4768 C   0  0  0  0  0  0  0  0  0  0  0  0
  -18.6072   12.2110   26.2951 O   0  0  0  0  0  0  0  0  0  0  0  0
  -18.3087   13.0429   24.0811 C   0  0  0  0  0  0  0  0  0  0  0  0
  -18.3967   11.6565   23.4606 C   0  0  0  0  0  0  0  0  0  0  0  0
  -17.0579   12.1882   23.9414 C   0  0  0  0  0  0  0  0  0  0  0  0
  -20.8273   15.9795   27.6615 S   0  0  0  0  0  0  0  0  0  0  0  0
  -20.5340   15.7061   29.2922 C   0  0  0  0  0  0  0  0  0  0  0  0
  -20.9434   16.4626   30.3864 C   0  0  0  0  0  0  0  0  0  0  0  0
  -22.6800   17.7508   32.3937 H   0  0  0  0  0  0  0  0  0  0  0  0
  -21.8197   18.2797   33.8882 H   0  0  0  0  0  0  0  0  0  0  0  0
  -21.1558   18.7394   32.2753 H   0  0  0  0  0  0  0  0  0  0  0  0
  -19.4410   14.5652   32.8056 H   0  0  0  0  0  0  0  0  0  0  0  0
  -18.7375   13.2588   30.8136 H   0  0  0  0  0  0  0  0  0  0  0  0
  -20.0517   14.8645   25.0957 H   0  0  0  0  0  0  0  0  0  0  0  0
  -18.3945   13.9013   23.3818 H   0  0  0  0  0  0  0  0  0  0  0  0
  -18.5072   11.6521   22.3556 H   0  0  0  0  0  0  0  0  0  0  0  0
  -18.8163   10.8536   24.1048 H   0  0  0  0  0  0  0  0  0  0  0  0
  -16.6892   11.6989   24.8691 H   0  0  0  0  0  0  0  0  0  0  0  0
  -16.3770   12.4985   23.1210 H   0  0  0  0  0  0  0  0  0  0  0  0
  -21.5471   17.3465   30.2322 H   0  0  0  0  0  0  0  0  0  0  0  0
  1  2  1  0
  2  3  1  0
  3  4  2  0
  4  5  1  0
  5  6  2  0
  6  7  1  0
  7  8  2  0
  8  9  1  0
  9 10  1  0
 10 11  2  0
 10 12  1  0
 12 13  1  0
 13 14  1  0
  8 15  1  0
 15 16  1  0
 16 17  2  0
  3 17  1  0
  6 16  1  0
 14 12  1  0
  1 18  1  0
  1 19  1  0
  1 20  1  0
  4 21  1  0
  5 22  1  0
  9 23  1  0
 12 24  1  0
 13 25  1  0
 13 26  1  0
 14 27  1  0
 14 28  1  0
 17 29  1  0
M  END
>  <CHROM.1>  (1) 
178.82468418,1.11237622,-136.29120254,1.05924835,0.97737765,-1.61077104

>  <Name>  (1) 
F579

>  <RI>  (1) 
4.12311e+07

>  <Rbt.Current_Directory>  (1) 
/data/out

>  <Rbt.Executable>  (1) 
rbdock ($Id: //depot/dev/client3/rdock/2013.1/src/exe/rbdock.cxx#4 $)

>  <Rbt.Library>  (1) 
libRbt.so (2013.1, Build901 2013/11/27)

>  <Rbt.Parameter_File>  (1) 
/python_libraries/phenodiscovery/docking/templates/RDOCK_TETHER.conf

>  <Rbt.Receptor>  (1) 
/data/out/rdock-opt/grid/rdock-grid.prm

>  <SCORE>  (1) 
0.990209

>  <SCORE.INTER>  (1) 
0.0570321

>  <SCORE.INTER.CONST>  (1) 
1

>  <SCORE.INTER.POLAR>  (1) 
0

>  <SCORE.INTER.REPUL>  (1) 
0

>  <SCORE.INTER.ROT>  (1) 
3

>  <SCORE.INTER.VDW>  (1) 
-8.34297

>  <SCORE.INTER.norm>  (1) 
0.00335483

>  <SCORE.INTRA>  (1) 
0.933177

>  <SCORE.INTRA.DIHEDRAL>  (1) 
-0.304828

>  <SCORE.INTRA.DIHEDRAL.0>  (1) 
2.93285

>  <SCORE.INTRA.POLAR>  (1) 
0

>  <SCORE.INTRA.POLAR.0>  (1) 
0

>  <SCORE.INTRA.REPUL>  (1) 
0

>  <SCORE.INTRA.REPUL.0>  (1) 
0

>  <SCORE.INTRA.VDW>  (1) 
1.08559

>  <SCORE.INTRA.VDW.0>  (1) 
-1.42278

>  <SCORE.INTRA.norm>  (1) 
0.0548928

>  <SCORE.RESTR>  (1) 
0

>  <SCORE.RESTR.CAVITY>  (1) 
0

>  <SCORE.RESTR.norm>  (1) 
0

>  <SCORE.SYSTEM>  (1) 
0

>  <SCORE.SYSTEM.CONST>  (1) 
0

>  <SCORE.SYSTEM.DIHEDRAL>  (1) 
0

>  <SCORE.SYSTEM.norm>  (1) 
0

>  <SCORE.heavy>  (1) 
17

>  <SCORE.norm>  (1) 
0.0582476

>  <TETHERED ATOMS>  (1) 
8,9,10,11,12,3,17,16,15,4

>  <skeledock_score>  (1) 
42

$$$$
