F217
     RDKit          3D

 28 29  0  0  0  0  0  0  0  0999 V2000
  -18.5418   11.8839   25.7202 C   0  0  0  0  0  0  0  0  0  0  0  0
  -18.3574   13.3365   26.0271 C   0  0  0  0  0  0  0  0  0  0  0  0
  -17.1456   13.9485   25.9570 N   0  0  0  0  0  0  0  0  0  0  0  0
  -17.4302   15.2223   26.2816 C   0  0  0  0  0  0  0  0  0  0  0  0
  -16.5473   16.2977   26.3459 C   0  0  0  0  0  0  0  0  0  0  0  0
  -17.0742   17.5586   26.6818 C   0  0  0  0  0  0  0  0  0  0  0  0
  -18.4558   17.7113   26.9369 C   0  0  0  0  0  0  0  0  0  0  0  0
  -19.3212   16.6041   26.8615 C   0  0  0  0  0  0  0  0  0  0  0  0
  -18.7638   15.3668   26.5346 C   0  0  0  0  0  0  0  0  0  0  0  0
  -19.3668   14.1744   26.3889 N   0  0  0  0  0  0  0  0  0  0  0  0
  -20.7981   13.8748   26.4857 C   0  0  0  0  0  0  0  0  0  0  0  0
  -21.2064   13.7144   27.9550 C   0  0  0  0  0  0  0  0  0  0  0  0
  -22.6740   13.9505   28.1890 C   0  0  0  0  0  0  0  0  0  0  0  0
  -23.0959   15.0662   28.5986 O   0  0  0  0  0  0  0  0  0  0  0  0
  -23.6044   12.8970   27.9438 N   0  0  0  0  0  0  0  0  0  0  0  0
  -17.5728   11.4264   25.4295 H   0  0  0  0  0  0  0  0  0  0  0  0
  -18.9297   11.3583   26.6173 H   0  0  0  0  0  0  0  0  0  0  0  0
  -19.2595   11.7656   24.8822 H   0  0  0  0  0  0  0  0  0  0  0  0
  -15.4924   16.1699   26.1399 H   0  0  0  0  0  0  0  0  0  0  0  0
  -16.4180   18.4171   26.7406 H   0  0  0  0  0  0  0  0  0  0  0  0
  -18.8514   18.6863   27.1896 H   0  0  0  0  0  0  0  0  0  0  0  0
  -20.3803   16.7178   27.0500 H   0  0  0  0  0  0  0  0  0  0  0  0
  -21.3883   14.6917   26.0174 H   0  0  0  0  0  0  0  0  0  0  0  0
  -21.0218   12.9412   25.9254 H   0  0  0  0  0  0  0  0  0  0  0  0
  -20.9561   12.6860   28.2934 H   0  0  0  0  0  0  0  0  0  0  0  0
  -20.6292   14.4333   28.5747 H   0  0  0  0  0  0  0  0  0  0  0  0
  -23.2752   11.9660   27.6043 H   0  0  0  0  0  0  0  0  0  0  0  0
  -24.6256   13.0470   28.1018 H   0  0  0  0  0  0  0  0  0  0  0  0
  1  2  1  0
  2  3  2  0
  3  4  1  0
  4  5  2  0
  5  6  1  0
  6  7  2  0
  7  8  1  0
  8  9  2  0
  9 10  1  0
 10 11  1  0
 11 12  1  0
 12 13  1  0
 13 14  2  0
 13 15  1  0
 10  2  1  0
  4  9  1  0
  1 16  1  0
  1 17  1  0
  1 18  1  0
  5 19  1  0
  6 20  1  0
  7 21  1  0
  8 22  1  0
 11 23  1  0
 11 24  1  0
 12 25  1  0
 12 26  1  0
 15 27  1  0
 15 28  1  0
M  END
>  <CHROM.1>  (1) 
103.72709578,157.10814877,-97.68795267,0.73654029,-0.14650556,-2.93012788

>  <Name>  (1) 
F217

>  <RI>  (1) 
1.36257e+07

>  <Rbt.Current_Directory>  (1) 
/data/out

>  <Rbt.Executable>  (1) 
rbdock ($Id: //depot/dev/client3/rdock/2013.1/src/exe/rbdock.cxx#4 $)

>  <Rbt.Library>  (1) 
libRbt.so (2013.1, Build901 2013/11/27)

>  <Rbt.Parameter_File>  (1) 
/python_libraries/phenodiscovery/docking/templates/RDOCK_TETHER.conf

>  <Rbt.Receptor>  (1) 
/data/out/rdock-opt/grid/rdock-grid.prm

>  <SCORE>  (1) 
-0.30216

>  <SCORE.INTER>  (1) 
-1.51709

>  <SCORE.INTER.CONST>  (1) 
1

>  <SCORE.INTER.POLAR>  (1) 
-0.871749

>  <SCORE.INTER.REPUL>  (1) 
0

>  <SCORE.INTER.ROT>  (1) 
3

>  <SCORE.INTER.VDW>  (1) 
-6.95314

>  <SCORE.INTER.norm>  (1) 
-0.101139

>  <SCORE.INTRA>  (1) 
1.21493

>  <SCORE.INTRA.DIHEDRAL>  (1) 
1.6174

>  <SCORE.INTRA.DIHEDRAL.0>  (1) 
3.8524

>  <SCORE.INTRA.POLAR>  (1) 
0

>  <SCORE.INTRA.POLAR.0>  (1) 
0

>  <SCORE.INTRA.REPUL>  (1) 
0

>  <SCORE.INTRA.REPUL.0>  (1) 
0

>  <SCORE.INTRA.VDW>  (1) 
0.406227

>  <SCORE.INTRA.VDW.0>  (1) 
-1.23137

>  <SCORE.INTRA.norm>  (1) 
0.0809952

>  <SCORE.RESTR>  (1) 
0

>  <SCORE.RESTR.CAVITY>  (1) 
0

>  <SCORE.RESTR.norm>  (1) 
0

>  <SCORE.SYSTEM>  (1) 
0

>  <SCORE.SYSTEM.CONST>  (1) 
0

>  <SCORE.SYSTEM.DIHEDRAL>  (1) 
0

>  <SCORE.SYSTEM.norm>  (1) 
0

>  <SCORE.heavy>  (1) 
15

>  <SCORE.norm>  (1) 
-0.020144

>  <TETHERED ATOMS>  (1) 
2,10,9,8,3,11

>  <skeledock_score>  (1) 
32

$$$$
