F274
     RDKit          3D

 26 27  0  0  0  0  0  0  0  0999 V2000
  -20.8582   15.9350   31.5067 C   0  0  0  0  0  0  0  0  0  0  0  0
  -20.3062   15.0606   30.4308 C   0  0  0  0  0  0  0  0  0  0  0  0
  -19.2446   15.3591   29.6024 C   0  0  0  0  0  0  0  0  0  0  0  0
  -19.1408   14.2401   28.8039 C   0  0  0  0  0  0  0  0  0  0  0  0
  -18.1281   14.0109   27.7258 C   0  0  0  0  0  0  0  0  0  0  0  0
  -18.7865   13.5317   26.5036 N   0  0  0  0  0  0  0  0  0  0  0  0
  -18.6026   12.2528   26.1562 N   0  0  0  0  0  0  0  0  0  0  0  0
  -19.1632   11.7138   25.0413 C   0  0  0  0  0  0  0  0  0  0  0  0
  -18.9173   10.2795   24.6982 C   0  0  0  0  0  0  0  0  0  0  0  0
  -19.9485   12.5182   24.2161 C   0  0  0  0  0  0  0  0  0  0  0  0
  -20.1443   13.8516   24.5592 C   0  0  0  0  0  0  0  0  0  0  0  0
  -19.5522   14.3563   25.7181 C   0  0  0  0  0  0  0  0  0  0  0  0
  -19.7307   15.5668   26.0238 O   0  0  0  0  0  0  0  0  0  0  0  0
  -20.0634   13.3753   29.1575 O   0  0  0  0  0  0  0  0  0  0  0  0
  -20.7881   13.8378   30.1354 N   0  0  0  0  0  0  0  0  0  0  0  0
  -20.2944   16.8904   31.5611 H   0  0  0  0  0  0  0  0  0  0  0  0
  -20.7809   15.4140   32.4837 H   0  0  0  0  0  0  0  0  0  0  0  0
  -21.9246   16.1565   31.2937 H   0  0  0  0  0  0  0  0  0  0  0  0
  -18.6358   16.2538   29.5856 H   0  0  0  0  0  0  0  0  0  0  0  0
  -17.3861   13.2546   28.0623 H   0  0  0  0  0  0  0  0  0  0  0  0
  -17.5725   14.9577   27.5582 H   0  0  0  0  0  0  0  0  0  0  0  0
  -19.8849    9.7553   24.5503 H   0  0  0  0  0  0  0  0  0  0  0  0
  -18.3606    9.7735   25.5154 H   0  0  0  0  0  0  0  0  0  0  0  0
  -18.3196   10.2164   23.7647 H   0  0  0  0  0  0  0  0  0  0  0  0
  -20.4016   12.1170   23.3179 H   0  0  0  0  0  0  0  0  0  0  0  0
  -20.7513   14.4886   23.9276 H   0  0  0  0  0  0  0  0  0  0  0  0
  1  2  1  0
  2  3  1  0
  3  4  2  0
  4  5  1  0
  5  6  1  0
  6  7  1  0
  7  8  2  0
  8  9  1  0
  8 10  1  0
 10 11  2  0
 11 12  1  0
 12 13  2  0
  4 14  1  0
 14 15  1  0
  2 15  2  0
 12  6  1  0
  1 16  1  0
  1 17  1  0
  1 18  1  0
  3 19  1  0
  5 20  1  0
  5 21  1  0
  9 22  1  0
  9 23  1  0
  9 24  1  0
 10 25  1  0
 11 26  1  0
M  END
>  <CHROM.1>  (1) 
-132.24075500,-108.62338271,1.68544926,-0.50124101,1.55737871

>  <Name>  (1) 
F274

>  <RI>  (1) 
3.24564e+07

>  <Rbt.Current_Directory>  (1) 
/data/out

>  <Rbt.Executable>  (1) 
rbdock ($Id: //depot/dev/client3/rdock/2013.1/src/exe/rbdock.cxx#4 $)

>  <Rbt.Library>  (1) 
libRbt.so (2013.1, Build901 2013/11/27)

>  <Rbt.Parameter_File>  (1) 
/python_libraries/phenodiscovery/docking/templates/RDOCK_TETHER.conf

>  <Rbt.Receptor>  (1) 
/data/out/rdock-opt/grid/rdock-grid.prm

>  <SCORE>  (1) 
-1.88991

>  <SCORE.INTER>  (1) 
-1.04624

>  <SCORE.INTER.CONST>  (1) 
1

>  <SCORE.INTER.POLAR>  (1) 
0

>  <SCORE.INTER.REPUL>  (1) 
0.00137742

>  <SCORE.INTER.ROT>  (1) 
2

>  <SCORE.INTER.VDW>  (1) 
-8.45313

>  <SCORE.INTER.norm>  (1) 
-0.0697493

>  <SCORE.INTRA>  (1) 
-0.843669

>  <SCORE.INTRA.DIHEDRAL>  (1) 
-0.550497

>  <SCORE.INTRA.DIHEDRAL.0>  (1) 
3.31342

>  <SCORE.INTRA.POLAR>  (1) 
0

>  <SCORE.INTRA.POLAR.0>  (1) 
0

>  <SCORE.INTRA.REPUL>  (1) 
0

>  <SCORE.INTRA.REPUL.0>  (1) 
0

>  <SCORE.INTRA.VDW>  (1) 
-0.56842

>  <SCORE.INTRA.VDW.0>  (1) 
-0.614999

>  <SCORE.INTRA.norm>  (1) 
-0.0562446

>  <SCORE.RESTR>  (1) 
0

>  <SCORE.RESTR.CAVITY>  (1) 
0

>  <SCORE.RESTR.norm>  (1) 
0

>  <SCORE.SYSTEM>  (1) 
0

>  <SCORE.SYSTEM.CONST>  (1) 
0

>  <SCORE.SYSTEM.DIHEDRAL>  (1) 
0

>  <SCORE.SYSTEM.norm>  (1) 
0

>  <SCORE.heavy>  (1) 
15

>  <SCORE.norm>  (1) 
-0.125994

>  <TETHERED ATOMS>  (1) 
2,3,4,5,6,12,11,13,15

>  <skeledock_score>  (1) 
35

$$$$
