F229
     RDKit          3D

 27 28  0  0  0  0  0  0  0  0999 V2000
  -18.2801   13.0524   28.9370 C   0  0  0  0  0  0  0  0  0  0  0  0
  -18.5572   14.4937   28.6631 C   0  0  0  0  0  0  0  0  0  0  0  0
  -17.6089   15.4507   28.6500 N   0  0  0  0  0  0  0  0  0  0  0  0
  -18.2113   16.6070   28.4212 N   0  0  0  0  0  0  0  0  0  0  0  0
  -19.5363   16.4145   28.2923 C   0  0  0  0  0  0  0  0  0  0  0  0
  -19.7955   15.0642   28.4232 C   0  0  0  0  0  0  0  0  0  0  0  0
  -21.1359   14.3864   28.4482 C   0  0  0  0  0  0  0  0  0  0  0  0
  -22.1885   15.3044   28.8881 N   0  0  0  0  0  0  0  0  0  0  0  0
  -23.5989   15.0032   28.8557 C   0  0  0  0  0  0  0  0  0  0  0  0
  -24.0715   13.7143   28.5333 C   0  0  0  0  0  0  0  0  0  0  0  0
  -25.4438   13.4495   28.5056 C   0  0  0  0  0  0  0  0  0  0  0  0
  -26.3596   14.4609   28.7996 C   0  0  0  0  0  0  0  0  0  0  0  0
  -25.9053   15.7407   29.1227 C   0  0  0  0  0  0  0  0  0  0  0  0
  -24.5339   16.0145   29.1524 C   0  0  0  0  0  0  0  0  0  0  0  0
  -24.1208   17.2678   29.4687 F   0  0  0  0  0  0  0  0  0  0  0  0
  -17.1951   12.8964   29.1138 H   0  0  0  0  0  0  0  0  0  0  0  0
  -18.5951   12.4403   28.0662 H   0  0  0  0  0  0  0  0  0  0  0  0
  -18.8431   12.7284   29.8371 H   0  0  0  0  0  0  0  0  0  0  0  0
  -17.7176   17.5249   28.3677 H   0  0  0  0  0  0  0  0  0  0  0  0
  -20.2590   17.2030   28.1269 H   0  0  0  0  0  0  0  0  0  0  0  0
  -21.0753   13.5330   29.1570 H   0  0  0  0  0  0  0  0  0  0  0  0
  -21.3883   13.9727   27.4491 H   0  0  0  0  0  0  0  0  0  0  0  0
  -21.8807   16.2360   29.2482 H   0  0  0  0  0  0  0  0  0  0  0  0
  -23.3900   12.9082   28.3011 H   0  0  0  0  0  0  0  0  0  0  0  0
  -25.7975   12.4574   28.2557 H   0  0  0  0  0  0  0  0  0  0  0  0
  -27.4215   14.2527   28.7773 H   0  0  0  0  0  0  0  0  0  0  0  0
  -26.6182   16.5227   29.3507 H   0  0  0  0  0  0  0  0  0  0  0  0
  1  2  1  0
  2  3  2  0
  3  4  1  0
  4  5  1  0
  5  6  2  0
  6  7  1  0
  7  8  1  0
  8  9  1  0
  9 10  2  0
 10 11  1  0
 11 12  2  0
 12 13  1  0
 13 14  2  0
 14 15  1  0
  6  2  1  0
  9 14  1  0
  1 16  1  0
  1 17  1  0
  1 18  1  0
  4 19  1  0
  5 20  1  0
  7 21  1  0
  7 22  1  0
  8 23  1  0
 10 24  1  0
 11 25  1  0
 12 26  1  0
 13 27  1  0
M  END
>  <CHROM.1>  (1) 
148.19880308,171.83401150,7.56398506,0.38614669,-0.00824066,-2.94497565

>  <Name>  (1) 
F229

>  <RI>  (1) 
4.0928e+07

>  <Rbt.Current_Directory>  (1) 
/data/out

>  <Rbt.Executable>  (1) 
rbdock ($Id: //depot/dev/client3/rdock/2013.1/src/exe/rbdock.cxx#4 $)

>  <Rbt.Library>  (1) 
libRbt.so (2013.1, Build901 2013/11/27)

>  <Rbt.Parameter_File>  (1) 
/python_libraries/phenodiscovery/docking/templates/RDOCK_TETHER.conf

>  <Rbt.Receptor>  (1) 
/data/out/rdock-opt/grid/rdock-grid.prm

>  <SCORE>  (1) 
-2.36052

>  <SCORE.INTER>  (1) 
-3.44429

>  <SCORE.INTER.CONST>  (1) 
1

>  <SCORE.INTER.POLAR>  (1) 
0

>  <SCORE.INTER.REPUL>  (1) 
0

>  <SCORE.INTER.ROT>  (1) 
3

>  <SCORE.INTER.VDW>  (1) 
-11.8443

>  <SCORE.INTER.norm>  (1) 
-0.22962

>  <SCORE.INTRA>  (1) 
1.08377

>  <SCORE.INTRA.DIHEDRAL>  (1) 
-0.290991

>  <SCORE.INTRA.DIHEDRAL.0>  (1) 
4.01036

>  <SCORE.INTRA.POLAR>  (1) 
0

>  <SCORE.INTRA.POLAR.0>  (1) 
0

>  <SCORE.INTRA.REPUL>  (1) 
0

>  <SCORE.INTRA.REPUL.0>  (1) 
0

>  <SCORE.INTRA.VDW>  (1) 
1.22926

>  <SCORE.INTRA.VDW.0>  (1) 
-1.83421

>  <SCORE.INTRA.norm>  (1) 
0.0722513

>  <SCORE.RESTR>  (1) 
0

>  <SCORE.RESTR.CAVITY>  (1) 
0

>  <SCORE.RESTR.norm>  (1) 
0

>  <SCORE.SYSTEM>  (1) 
0

>  <SCORE.SYSTEM.CONST>  (1) 
0

>  <SCORE.SYSTEM.DIHEDRAL>  (1) 
0

>  <SCORE.SYSTEM.norm>  (1) 
0

>  <SCORE.heavy>  (1) 
15

>  <SCORE.norm>  (1) 
-0.157368

>  <TETHERED ATOMS>  (1) 
1,2,6,7,8,9,14,10,15

>  <skeledock_score>  (1) 
23

$$$$
