F389
     RDKit          3D

 18 18  0  0  0  0  0  0  0  0999 V2000
  -18.6559   13.1752   27.8245 C   0  0  0  0  0  0  0  0  0  0  0  0
  -19.2198   14.2741   26.9310 C   0  0  0  0  0  0  0  0  0  0  0  0
  -20.6425   14.3087   27.0150 O   0  0  0  0  0  0  0  0  0  0  0  0
  -21.3373   14.7329   28.1531 C   0  0  0  0  0  0  0  0  0  0  0  0
  -20.7218   15.2300   29.1355 O   0  0  0  0  0  0  0  0  0  0  0  0
  -22.7963   14.5957   28.1987 C   0  0  0  0  0  0  0  0  0  0  0  0
  -23.6684   15.1711   29.1018 C   0  0  0  0  0  0  0  0  0  0  0  0
  -24.9277   14.8115   28.7844 N   0  0  0  0  0  0  0  0  0  0  0  0
  -24.8705   14.0329   27.7147 N   0  0  0  0  0  0  0  0  0  0  0  0
  -23.5914   13.8797   27.3309 C   0  0  0  0  0  0  0  0  0  0  0  0
  -18.9934   12.1776   27.4740 H   0  0  0  0  0  0  0  0  0  0  0  0
  -17.5462   13.2048   27.7969 H   0  0  0  0  0  0  0  0  0  0  0  0
  -18.9939   13.3272   28.8714 H   0  0  0  0  0  0  0  0  0  0  0  0
  -18.8975   14.1230   25.8779 H   0  0  0  0  0  0  0  0  0  0  0  0
  -18.8221   15.2514   27.2772 H   0  0  0  0  0  0  0  0  0  0  0  0
  -23.4076   15.8124   29.9334 H   0  0  0  0  0  0  0  0  0  0  0  0
  -25.7047   13.6106   27.2508 H   0  0  0  0  0  0  0  0  0  0  0  0
  -23.2675   13.2941   26.4802 H   0  0  0  0  0  0  0  0  0  0  0  0
  1  2  1  0
  2  3  1  0
  3  4  1  0
  4  5  2  0
  4  6  1  0
  6  7  1  0
  7  8  2  0
  8  9  1  0
  9 10  1  0
  6 10  2  0
  1 11  1  0
  1 12  1  0
  1 13  1  0
  2 14  1  0
  2 15  1  0
  7 16  1  0
  9 17  1  0
 10 18  1  0
M  END
>  <CHROM.1>  (1) 
69.90084548,6.64437470,-166.84481761,-0.20185582,-0.00513309,0.83329901

>  <Name>  (1) 
F389

>  <RI>  (1) 
3.03275e+07

>  <Rbt.Current_Directory>  (1) 
/data/out

>  <Rbt.Executable>  (1) 
rbdock ($Id: //depot/dev/client3/rdock/2013.1/src/exe/rbdock.cxx#4 $)

>  <Rbt.Library>  (1) 
libRbt.so (2013.1, Build901 2013/11/27)

>  <Rbt.Parameter_File>  (1) 
/python_libraries/phenodiscovery/docking/templates/RDOCK_TETHER.conf

>  <Rbt.Receptor>  (1) 
/data/out/rdock-opt/grid/rdock-grid.prm

>  <SCORE>  (1) 
0.737182

>  <SCORE.INTER>  (1) 
0.329598

>  <SCORE.INTER.CONST>  (1) 
1

>  <SCORE.INTER.POLAR>  (1) 
-0.489898

>  <SCORE.INTER.REPUL>  (1) 
0.0149664

>  <SCORE.INTER.ROT>  (1) 
3

>  <SCORE.INTER.VDW>  (1) 
-6.47958

>  <SCORE.INTER.norm>  (1) 
0.0329598

>  <SCORE.INTRA>  (1) 
0.407585

>  <SCORE.INTRA.DIHEDRAL>  (1) 
0.399004

>  <SCORE.INTRA.DIHEDRAL.0>  (1) 
1.04516

>  <SCORE.INTRA.POLAR>  (1) 
0

>  <SCORE.INTRA.POLAR.0>  (1) 
0

>  <SCORE.INTRA.REPUL>  (1) 
0

>  <SCORE.INTRA.REPUL.0>  (1) 
0

>  <SCORE.INTRA.VDW>  (1) 
0.208083

>  <SCORE.INTRA.VDW.0>  (1) 
-1.12872

>  <SCORE.INTRA.norm>  (1) 
0.0407585

>  <SCORE.RESTR>  (1) 
0

>  <SCORE.RESTR.CAVITY>  (1) 
0

>  <SCORE.RESTR.norm>  (1) 
0

>  <SCORE.SYSTEM>  (1) 
0

>  <SCORE.SYSTEM.CONST>  (1) 
0

>  <SCORE.SYSTEM.DIHEDRAL>  (1) 
0

>  <SCORE.SYSTEM.norm>  (1) 
0

>  <SCORE.heavy>  (1) 
10

>  <SCORE.norm>  (1) 
0.0737182

>  <TETHERED ATOMS>  (1) 
4,2,1,7,9

>  <skeledock_score>  (1) 
16

$$$$
