F558
     RDKit          3D

 32 33  0  0  0  0  0  0  0  0999 V2000
  -27.7053   16.3903   28.4620 C   0  0  0  0  0  0  0  0  0  0  0  0
  -26.8288   17.3387   29.0585 O   0  0  0  0  0  0  0  0  0  0  0  0
  -25.4580   17.1091   29.2063 C   0  0  0  0  0  0  0  0  0  0  0  0
  -24.7169   17.9922   29.7193 O   0  0  0  0  0  0  0  0  0  0  0  0
  -24.9166   15.8432   28.8078 N   0  0  0  0  0  0  0  0  0  0  0  0
  -23.5117   15.5451   28.7440 C   0  0  0  0  0  0  0  0  0  0  0  0
  -23.0789   14.2329   28.9812 C   0  0  0  0  0  0  0  0  0  0  0  0
  -21.7234   13.9085   28.8985 C   0  0  0  0  0  0  0  0  0  0  0  0
  -20.7790   14.8911   28.5635 C   0  0  0  0  0  0  0  0  0  0  0  0
  -19.3243   14.5288   28.4248 C   0  0  0  0  0  0  0  0  0  0  0  0
  -19.0250   13.9805   27.0521 C   0  0  0  0  0  0  0  0  0  0  0  0
  -18.6360   12.6411   26.8842 C   0  0  0  0  0  0  0  0  0  0  0  0
  -18.3358   12.1643   25.6067 C   0  0  0  0  0  0  0  0  0  0  0  0
  -18.3987   12.9981   24.5358 N   0  0  0  0  0  0  0  0  0  0  0  0
  -18.7585   14.3020   24.6693 C   0  0  0  0  0  0  0  0  0  0  0  0
  -19.0818   14.8164   25.9272 C   0  0  0  0  0  0  0  0  0  0  0  0
  -21.2110   16.1987   28.2974 C   0  0  0  0  0  0  0  0  0  0  0  0
  -22.5679   16.5240   28.3835 C   0  0  0  0  0  0  0  0  0  0  0  0
  -27.3949   16.1917   27.4143 H   0  0  0  0  0  0  0  0  0  0  0  0
  -27.6933   15.4436   29.0428 H   0  0  0  0  0  0  0  0  0  0  0  0
  -28.7370   16.7980   28.4602 H   0  0  0  0  0  0  0  0  0  0  0  0
  -25.5952   15.0670   28.6367 H   0  0  0  0  0  0  0  0  0  0  0  0
  -23.7944   13.4615   29.2369 H   0  0  0  0  0  0  0  0  0  0  0  0
  -21.4123   12.8882   29.0857 H   0  0  0  0  0  0  0  0  0  0  0  0
  -19.0435   13.7632   29.1805 H   0  0  0  0  0  0  0  0  0  0  0  0
  -18.7047   15.4272   28.6388 H   0  0  0  0  0  0  0  0  0  0  0  0
  -18.5611   11.9730   27.7324 H   0  0  0  0  0  0  0  0  0  0  0  0
  -18.0409   11.1327   25.4682 H   0  0  0  0  0  0  0  0  0  0  0  0
  -18.7972   14.9404   23.7968 H   0  0  0  0  0  0  0  0  0  0  0  0
  -19.3654   15.8572   26.0212 H   0  0  0  0  0  0  0  0  0  0  0  0
  -20.4980   16.9611   28.0085 H   0  0  0  0  0  0  0  0  0  0  0  0
  -22.8788   17.5302   28.1369 H   0  0  0  0  0  0  0  0  0  0  0  0
  1  2  1  0
  2  3  1  0
  3  4  2  0
  3  5  1  0
  5  6  1  0
  6  7  2  0
  7  8  1  0
  8  9  2  0
  9 10  1  0
 10 11  1  0
 11 12  2  0
 12 13  1  0
 13 14  2  0
 14 15  1  0
 15 16  2  0
  9 17  1  0
 17 18  2  0
  6 18  1  0
 11 16  1  0
  1 19  1  0
  1 20  1  0
  1 21  1  0
  5 22  1  0
  7 23  1  0
  8 24  1  0
 10 25  1  0
 10 26  1  0
 12 27  1  0
 13 28  1  0
 15 29  1  0
 16 30  1  0
 17 31  1  0
 18 32  1  0
M  END
>  <CHROM.1>  (1) 
178.65893577,149.48803760,83.82444257,-113.75543010,-2.79322964,0.54025911
-1.25536754

>  <Name>  (1) 
F558

>  <RI>  (1) 
3.63108e+07

>  <Rbt.Current_Directory>  (1) 
/data/out

>  <Rbt.Executable>  (1) 
rbdock ($Id: //depot/dev/client3/rdock/2013.1/src/exe/rbdock.cxx#4 $)

>  <Rbt.Library>  (1) 
libRbt.so (2013.1, Build901 2013/11/27)

>  <Rbt.Parameter_File>  (1) 
/python_libraries/phenodiscovery/docking/templates/RDOCK_TETHER.conf

>  <Rbt.Receptor>  (1) 
/data/out/rdock-opt/grid/rdock-grid.prm

>  <SCORE>  (1) 
-3.90363

>  <SCORE.INTER>  (1) 
-4.25896

>  <SCORE.INTER.CONST>  (1) 
1

>  <SCORE.INTER.POLAR>  (1) 
0

>  <SCORE.INTER.REPUL>  (1) 
0

>  <SCORE.INTER.ROT>  (1) 
4

>  <SCORE.INTER.VDW>  (1) 
-13.659

>  <SCORE.INTER.norm>  (1) 
-0.236609

>  <SCORE.INTRA>  (1) 
0.355327

>  <SCORE.INTRA.DIHEDRAL>  (1) 
-0.362765

>  <SCORE.INTRA.DIHEDRAL.0>  (1) 
4.96567

>  <SCORE.INTRA.POLAR>  (1) 
0

>  <SCORE.INTRA.POLAR.0>  (1) 
0

>  <SCORE.INTRA.REPUL>  (1) 
0

>  <SCORE.INTRA.REPUL.0>  (1) 
0

>  <SCORE.INTRA.VDW>  (1) 
0.53671

>  <SCORE.INTRA.VDW.0>  (1) 
-1.15036

>  <SCORE.INTRA.norm>  (1) 
0.0197404

>  <SCORE.RESTR>  (1) 
0

>  <SCORE.RESTR.CAVITY>  (1) 
0

>  <SCORE.RESTR.norm>  (1) 
0

>  <SCORE.SYSTEM>  (1) 
0

>  <SCORE.SYSTEM.CONST>  (1) 
0

>  <SCORE.SYSTEM.DIHEDRAL>  (1) 
0

>  <SCORE.SYSTEM.norm>  (1) 
0

>  <SCORE.heavy>  (1) 
18

>  <SCORE.norm>  (1) 
-0.216869

>  <TETHERED ATOMS>  (1) 
9,10,11,16,15,3,5,6,7,8,14,12,13

>  <skeledock_score>  (1) 
72

$$$$
