F217
     RDKit          3D

 28 29  0  0  0  0  0  0  0  0999 V2000
  -18.1134   16.7917   28.2074 C   0  0  0  0  0  0  0  0  0  0  0  0
  -19.5748   16.8611   28.5214 C   0  0  0  0  0  0  0  0  0  0  0  0
  -20.1284   17.9137   29.1789 N   0  0  0  0  0  0  0  0  0  0  0  0
  -21.4304   17.5813   29.2400 C   0  0  0  0  0  0  0  0  0  0  0  0
  -22.4659   18.3202   29.8074 C   0  0  0  0  0  0  0  0  0  0  0  0
  -23.7647   17.7830   29.7442 C   0  0  0  0  0  0  0  0  0  0  0  0
  -23.9931   16.5364   29.1196 C   0  0  0  0  0  0  0  0  0  0  0  0
  -22.9249   15.8148   28.5537 C   0  0  0  0  0  0  0  0  0  0  0  0
  -21.6482   16.3742   28.6393 C   0  0  0  0  0  0  0  0  0  0  0  0
  -20.4760   15.8976   28.1845 N   0  0  0  0  0  0  0  0  0  0  0  0
  -20.2313   14.6677   27.4251 C   0  0  0  0  0  0  0  0  0  0  0  0
  -20.1415   13.4669   28.3742 C   0  0  0  0  0  0  0  0  0  0  0  0
  -21.3216   13.3514   29.3020 C   0  0  0  0  0  0  0  0  0  0  0  0
  -21.4069   14.0608   30.3408 O   0  0  0  0  0  0  0  0  0  0  0  0
  -22.3576   12.4154   29.0075 N   0  0  0  0  0  0  0  0  0  0  0  0
  -17.5988   17.7064   28.5699 H   0  0  0  0  0  0  0  0  0  0  0  0
  -17.9674   16.7103   27.1107 H   0  0  0  0  0  0  0  0  0  0  0  0
  -17.6644   15.9087   28.7075 H   0  0  0  0  0  0  0  0  0  0  0  0
  -22.2793   19.2763   30.2789 H   0  0  0  0  0  0  0  0  0  0  0  0
  -24.5939   18.3293   30.1745 H   0  0  0  0  0  0  0  0  0  0  0  0
  -24.9967   16.1342   29.0738 H   0  0  0  0  0  0  0  0  0  0  0  0
  -23.0966   14.8627   28.0696 H   0  0  0  0  0  0  0  0  0  0  0  0
  -19.2886   14.7622   26.8443 H   0  0  0  0  0  0  0  0  0  0  0  0
  -21.0542   14.5125   26.6947 H   0  0  0  0  0  0  0  0  0  0  0  0
  -20.0697   12.5365   27.7710 H   0  0  0  0  0  0  0  0  0  0  0  0
  -19.2206   13.5506   28.9897 H   0  0  0  0  0  0  0  0  0  0  0  0
  -22.3041   11.8148   28.1549 H   0  0  0  0  0  0  0  0  0  0  0  0
  -23.1805   12.3215   29.6432 H   0  0  0  0  0  0  0  0  0  0  0  0
  1  2  1  0
  2  3  2  0
  3  4  1  0
  4  5  2  0
  5  6  1  0
  6  7  2  0
  7  8  1  0
  8  9  2  0
  9 10  1  0
 10 11  1  0
 11 12  1  0
 12 13  1  0
 13 14  2  0
 13 15  1  0
 10  2  1  0
  4  9  1  0
  1 16  1  0
  1 17  1  0
  1 18  1  0
  5 19  1  0
  6 20  1  0
  7 21  1  0
  8 22  1  0
 11 23  1  0
 11 24  1  0
 12 25  1  0
 12 26  1  0
 15 27  1  0
 15 28  1  0
M  END
>  <CHROM.1>  (1) 
101.70962206,52.65654789,-79.77655028,-2.61657944,-0.55235088,2.49950764

>  <Name>  (1) 
F217

>  <RI>  (1) 
2.28154e+07

>  <Rbt.Current_Directory>  (1) 
/data/out

>  <Rbt.Executable>  (1) 
rbdock ($Id: //depot/dev/client3/rdock/2013.1/src/exe/rbdock.cxx#4 $)

>  <Rbt.Library>  (1) 
libRbt.so (2013.1, Build901 2013/11/27)

>  <Rbt.Parameter_File>  (1) 
/python_libraries/phenodiscovery/docking/templates/RDOCK_TETHER.conf

>  <Rbt.Receptor>  (1) 
/data/out/rdock-opt/grid/rdock-grid.prm

>  <SCORE>  (1) 
-4.59131

>  <SCORE.INTER>  (1) 
-4.51539

>  <SCORE.INTER.CONST>  (1) 
1

>  <SCORE.INTER.POLAR>  (1) 
-1.2348

>  <SCORE.INTER.REPUL>  (1) 
0

>  <SCORE.INTER.ROT>  (1) 
3

>  <SCORE.INTER.VDW>  (1) 
-8.71707

>  <SCORE.INTER.norm>  (1) 
-0.301026

>  <SCORE.INTRA>  (1) 
-0.0759199

>  <SCORE.INTRA.DIHEDRAL>  (1) 
0.818034

>  <SCORE.INTRA.DIHEDRAL.0>  (1) 
3.8964

>  <SCORE.INTRA.POLAR>  (1) 
0

>  <SCORE.INTRA.POLAR.0>  (1) 
0

>  <SCORE.INTRA.REPUL>  (1) 
0

>  <SCORE.INTRA.REPUL.0>  (1) 
0

>  <SCORE.INTRA.VDW>  (1) 
-0.484937

>  <SCORE.INTRA.VDW.0>  (1) 
-1.12035

>  <SCORE.INTRA.norm>  (1) 
-0.00506133

>  <SCORE.RESTR>  (1) 
0

>  <SCORE.RESTR.CAVITY>  (1) 
0

>  <SCORE.RESTR.norm>  (1) 
0

>  <SCORE.SYSTEM>  (1) 
0

>  <SCORE.SYSTEM.CONST>  (1) 
0

>  <SCORE.SYSTEM.DIHEDRAL>  (1) 
0

>  <SCORE.SYSTEM.norm>  (1) 
0

>  <SCORE.heavy>  (1) 
15

>  <SCORE.norm>  (1) 
-0.306087

>  <TETHERED ATOMS>  (1) 
8,9,10,11,12,13,7,14

>  <skeledock_score>  (1) 
27

$$$$
