F467
     RDKit          3D

 23 23  0  0  0  0  0  0  0  0999 V2000
  -18.8764   15.5278   25.8723 C   0  0  0  0  0  0  0  0  0  0  0  0
  -19.1290   14.5303   26.9144 N   0  0  0  0  0  0  0  0  0  0  0  0
  -19.0707   13.1016   26.5871 C   0  0  0  0  0  0  0  0  0  0  0  0
  -20.4563   12.5995   26.1758 C   0  0  0  0  0  0  0  0  0  0  0  0
  -21.3834   12.8329   27.1994 O   0  0  0  0  0  0  0  0  0  0  0  0
  -19.2291   14.9666   28.2796 C   0  0  0  0  0  0  0  0  0  0  0  0
  -20.0634   16.0383   28.6320 C   0  0  0  0  0  0  0  0  0  0  0  0
  -20.0986   16.4711   29.9594 C   0  0  0  0  0  0  0  0  0  0  0  0
  -19.3133   15.8327   30.9206 C   0  0  0  0  0  0  0  0  0  0  0  0
  -18.4960   14.7684   30.5361 C   0  0  0  0  0  0  0  0  0  0  0  0
  -18.4664   14.3684   29.2372 N   0  0  0  0  0  0  0  0  0  0  0  0
  -19.6988   16.2738   25.8634 H   0  0  0  0  0  0  0  0  0  0  0  0
  -17.9135   16.0453   26.0672 H   0  0  0  0  0  0  0  0  0  0  0  0
  -18.8237   15.0542   24.8687 H   0  0  0  0  0  0  0  0  0  0  0  0
  -18.7102   12.5284   27.4689 H   0  0  0  0  0  0  0  0  0  0  0  0
  -18.3558   12.9176   25.7566 H   0  0  0  0  0  0  0  0  0  0  0  0
  -20.7938   13.1399   25.2664 H   0  0  0  0  0  0  0  0  0  0  0  0
  -20.4124   11.5131   25.9328 H   0  0  0  0  0  0  0  0  0  0  0  0
  -22.2580   12.4943   26.8733 H   0  0  0  0  0  0  0  0  0  0  0  0
  -20.6580   16.5479   27.8848 H   0  0  0  0  0  0  0  0  0  0  0  0
  -20.7326   17.3015   30.2422 H   0  0  0  0  0  0  0  0  0  0  0  0
  -19.3361   16.1604   31.9518 H   0  0  0  0  0  0  0  0  0  0  0  0
  -17.8787   14.2656   31.2685 H   0  0  0  0  0  0  0  0  0  0  0  0
  1  2  1  0
  2  3  1  0
  3  4  1  0
  4  5  1  0
  2  6  1  0
  6  7  2  0
  7  8  1  0
  8  9  2  0
  9 10  1  0
 10 11  2  0
  6 11  1  0
  1 12  1  0
  1 13  1  0
  1 14  1  0
  3 15  1  0
  3 16  1  0
  4 17  1  0
  4 18  1  0
  5 19  1  0
  7 20  1  0
  8 21  1  0
  9 22  1  0
 10 23  1  0
M  END
>  <CHROM.1>  (1) 
-91.22200308,-57.62988060,179.59955665,49.85898335,1.33934464,-0.27331091
0.86391001

>  <Name>  (1) 
F467

>  <RI>  (1) 
2.6128e+07

>  <Rbt.Current_Directory>  (1) 
/data/out

>  <Rbt.Executable>  (1) 
rbdock ($Id: //depot/dev/client3/rdock/2013.1/src/exe/rbdock.cxx#4 $)

>  <Rbt.Library>  (1) 
libRbt.so (2013.1, Build901 2013/11/27)

>  <Rbt.Parameter_File>  (1) 
/python_libraries/phenodiscovery/docking/templates/RDOCK_TETHER.conf

>  <Rbt.Receptor>  (1) 
/data/out/rdock-opt/grid/rdock-grid.prm

>  <SCORE>  (1) 
-2.54214

>  <SCORE.INTER>  (1) 
-1.83217

>  <SCORE.INTER.CONST>  (1) 
1

>  <SCORE.INTER.POLAR>  (1) 
-0.848528

>  <SCORE.INTER.REPUL>  (1) 
0

>  <SCORE.INTER.ROT>  (1) 
3

>  <SCORE.INTER.VDW>  (1) 
-7.34717

>  <SCORE.INTER.norm>  (1) 
-0.166561

>  <SCORE.INTRA>  (1) 
-0.709967

>  <SCORE.INTRA.DIHEDRAL>  (1) 
-3.12663

>  <SCORE.INTRA.DIHEDRAL.0>  (1) 
11.6775

>  <SCORE.INTRA.POLAR>  (1) 
0

>  <SCORE.INTRA.POLAR.0>  (1) 
0

>  <SCORE.INTRA.REPUL>  (1) 
0

>  <SCORE.INTRA.REPUL.0>  (1) 
0

>  <SCORE.INTRA.VDW>  (1) 
0.853347

>  <SCORE.INTRA.VDW.0>  (1) 
-0.912463

>  <SCORE.INTRA.norm>  (1) 
-0.0645424

>  <SCORE.RESTR>  (1) 
0

>  <SCORE.RESTR.CAVITY>  (1) 
0

>  <SCORE.RESTR.norm>  (1) 
0

>  <SCORE.SYSTEM>  (1) 
0

>  <SCORE.SYSTEM.CONST>  (1) 
0

>  <SCORE.SYSTEM.DIHEDRAL>  (1) 
0

>  <SCORE.SYSTEM.norm>  (1) 
0

>  <SCORE.heavy>  (1) 
11

>  <SCORE.norm>  (1) 
-0.231103

>  <TETHERED ATOMS>  (1) 
7,8,9,10,2,3,4,5,6,11

>  <skeledock_score>  (1) 
53

$$$$
