F11
     RDKit          3D

 16 17  0  0  0  0  0  0  0  0999 V2000
  -16.8672   13.4399   24.0563 Br  0  0  0  0  0  0  0  0  0  0  0  0
  -18.1328   14.1195   25.3296 C   0  0  0  0  0  0  0  0  0  0  0  0
  -19.3195   13.4039   25.5211 C   0  0  0  0  0  0  0  0  0  0  0  0
  -20.2670   13.8627   26.4382 C   0  0  0  0  0  0  0  0  0  0  0  0
  -20.0390   15.0007   27.1435 N   0  0  0  0  0  0  0  0  0  0  0  0
  -18.9002   15.7249   26.9844 C   0  0  0  0  0  0  0  0  0  0  0  0
  -18.7162   16.8587   27.7118 N   0  0  0  0  0  0  0  0  0  0  0  0
  -17.5931   17.6137   27.5871 C   0  0  0  0  0  0  0  0  0  0  0  0
  -16.5885   17.2343   26.6954 C   0  0  0  0  0  0  0  0  0  0  0  0
  -16.7456   16.0748   25.9332 C   0  0  0  0  0  0  0  0  0  0  0  0
  -17.9100   15.2998   26.0681 C   0  0  0  0  0  0  0  0  0  0  0  0
  -19.5077   12.4958   24.9629 H   0  0  0  0  0  0  0  0  0  0  0  0
  -21.1855   13.3117   26.5898 H   0  0  0  0  0  0  0  0  0  0  0  0
  -17.4797   18.5103   28.1817 H   0  0  0  0  0  0  0  0  0  0  0  0
  -15.6938   17.8351   26.5957 H   0  0  0  0  0  0  0  0  0  0  0  0
  -15.9573   15.7960   25.2474 H   0  0  0  0  0  0  0  0  0  0  0  0
  1  2  1  0
  2  3  2  0
  3  4  1  0
  4  5  2  0
  5  6  1  0
  6  7  2  0
  7  8  1  0
  8  9  2  0
  9 10  1  0
 10 11  2  0
 11  2  1  0
 11  6  1  0
  3 12  1  0
  4 13  1  0
  8 14  1  0
  9 15  1  0
 10 16  1  0
M  END
>  <CHROM.1>  (1) 
0.32078719,0.45511816,0.63744657

>  <Name>  (1) 
F11

>  <RI>  (1) 
9.41091e+06

>  <Rbt.Current_Directory>  (1) 
/data/out

>  <Rbt.Executable>  (1) 
rbdock ($Id: //depot/dev/client3/rdock/2013.1/src/exe/rbdock.cxx#4 $)

>  <Rbt.Library>  (1) 
libRbt.so (2013.1, Build901 2013/11/27)

>  <Rbt.Parameter_File>  (1) 
/python_libraries/phenodiscovery/docking/templates/RDOCK_TETHER.conf

>  <Rbt.Receptor>  (1) 
/data/out/rdock-opt/grid/rdock-grid.prm

>  <SCORE>  (1) 
-3.62733

>  <SCORE.INTER>  (1) 
-3.74873

>  <SCORE.INTER.CONST>  (1) 
1

>  <SCORE.INTER.POLAR>  (1) 
-0.425134

>  <SCORE.INTER.REPUL>  (1) 
0

>  <SCORE.INTER.ROT>  (1) 
0

>  <SCORE.INTER.VDW>  (1) 
-7.70327

>  <SCORE.INTER.norm>  (1) 
-0.340793

>  <SCORE.INTRA>  (1) 
0

>  <SCORE.INTRA.DIHEDRAL>  (1) 
0

>  <SCORE.INTRA.DIHEDRAL.0>  (1) 
0

>  <SCORE.INTRA.POLAR>  (1) 
0

>  <SCORE.INTRA.POLAR.0>  (1) 
0

>  <SCORE.INTRA.REPUL>  (1) 
0

>  <SCORE.INTRA.REPUL.0>  (1) 
0

>  <SCORE.INTRA.VDW>  (1) 
0

>  <SCORE.INTRA.VDW.0>  (1) 
0

>  <SCORE.INTRA.norm>  (1) 
0

>  <SCORE.RESTR>  (1) 
0.121402

>  <SCORE.RESTR.CAVITY>  (1) 
0.121402

>  <SCORE.RESTR.norm>  (1) 
0.0110365

>  <SCORE.SYSTEM>  (1) 
0

>  <SCORE.SYSTEM.CONST>  (1) 
0

>  <SCORE.SYSTEM.DIHEDRAL>  (1) 
0

>  <SCORE.SYSTEM.norm>  (1) 
0

>  <SCORE.heavy>  (1) 
11

>  <SCORE.norm>  (1) 
-0.329757

>  <TETHERED ATOMS>  (1) 
6,11,5,4

>  <skeledock_score>  (1) 
15

$$$$
