F205
     RDKit          3D

 20 20  0  0  0  0  0  0  0  0999 V2000
  -20.5836   15.3994   25.2771 C   0  0  0  0  0  0  0  0  0  0  0  0
  -19.6643   14.7327   26.2731 C   0  0  0  0  0  0  0  0  0  0  0  0
  -19.0437   15.5302   27.2454 C   0  0  0  0  0  0  0  0  0  0  0  0
  -18.1908   14.9526   28.1764 C   0  0  0  0  0  0  0  0  0  0  0  0
  -17.9505   13.5806   28.1458 C   0  0  0  0  0  0  0  0  0  0  0  0
  -17.0684   12.9926   29.1102 N   0  0  0  0  0  0  0  0  0  0  0  0
  -18.5817   12.7963   27.1640 C   0  0  0  0  0  0  0  0  0  0  0  0
  -18.3602   11.5536   27.1403 O   0  0  0  0  0  0  0  0  0  0  0  0
  -19.4279   13.3739   26.2425 N   0  0  0  0  0  0  0  0  0  0  0  0
  -20.0848   12.5429   25.2147 C   0  0  0  0  0  0  0  0  0  0  0  0
  -20.2029   15.2425   24.2467 H   0  0  0  0  0  0  0  0  0  0  0  0
  -20.6542   16.4948   25.4486 H   0  0  0  0  0  0  0  0  0  0  0  0
  -21.6060   14.9772   25.3642 H   0  0  0  0  0  0  0  0  0  0  0  0
  -19.2182   16.5985   27.2843 H   0  0  0  0  0  0  0  0  0  0  0  0
  -17.7157   15.5763   28.9234 H   0  0  0  0  0  0  0  0  0  0  0  0
  -16.6037   13.5828   29.8360 H   0  0  0  0  0  0  0  0  0  0  0  0
  -16.8686   11.9678   29.1128 H   0  0  0  0  0  0  0  0  0  0  0  0
  -21.1881   12.6191   25.3130 H   0  0  0  0  0  0  0  0  0  0  0  0
  -19.7773   12.8789   24.2021 H   0  0  0  0  0  0  0  0  0  0  0  0
  -19.8242   11.4675   25.2958 H   0  0  0  0  0  0  0  0  0  0  0  0
  1  2  1  0
  2  3  2  0
  3  4  1  0
  4  5  2  0
  5  6  1  0
  5  7  1  0
  7  8  2  0
  7  9  1  0
  9 10  1  0
  9  2  1  0
  1 11  1  0
  1 12  1  0
  1 13  1  0
  3 14  1  0
  4 15  1  0
  6 16  1  0
  6 17  1  0
 10 18  1  0
 10 19  1  0
 10 20  1  0
M  END
>  <CHROM.1>  (1) 
2.87136170,0.88459129,-2.90451627

>  <Name>  (1) 
F205

>  <RI>  (1) 
3.91663e+07

>  <Rbt.Current_Directory>  (1) 
/data/out

>  <Rbt.Executable>  (1) 
rbdock ($Id: //depot/dev/client3/rdock/2013.1/src/exe/rbdock.cxx#4 $)

>  <Rbt.Library>  (1) 
libRbt.so (2013.1, Build901 2013/11/27)

>  <Rbt.Parameter_File>  (1) 
/python_libraries/phenodiscovery/docking/templates/RDOCK_TETHER.conf

>  <Rbt.Receptor>  (1) 
/data/out/rdock-opt/grid/rdock-grid.prm

>  <SCORE>  (1) 
-1.73807

>  <SCORE.INTER>  (1) 
-1.73807

>  <SCORE.INTER.CONST>  (1) 
1

>  <SCORE.INTER.POLAR>  (1) 
0

>  <SCORE.INTER.REPUL>  (1) 
0

>  <SCORE.INTER.ROT>  (1) 
0

>  <SCORE.INTER.VDW>  (1) 
-7.13807

>  <SCORE.INTER.norm>  (1) 
-0.173807

>  <SCORE.INTRA>  (1) 
0

>  <SCORE.INTRA.DIHEDRAL>  (1) 
0

>  <SCORE.INTRA.DIHEDRAL.0>  (1) 
0

>  <SCORE.INTRA.POLAR>  (1) 
0

>  <SCORE.INTRA.POLAR.0>  (1) 
0

>  <SCORE.INTRA.REPUL>  (1) 
0

>  <SCORE.INTRA.REPUL.0>  (1) 
0

>  <SCORE.INTRA.VDW>  (1) 
0

>  <SCORE.INTRA.VDW.0>  (1) 
0

>  <SCORE.INTRA.norm>  (1) 
0

>  <SCORE.RESTR>  (1) 
0

>  <SCORE.RESTR.CAVITY>  (1) 
0

>  <SCORE.RESTR.norm>  (1) 
0

>  <SCORE.SYSTEM>  (1) 
0

>  <SCORE.SYSTEM.CONST>  (1) 
0

>  <SCORE.SYSTEM.DIHEDRAL>  (1) 
0

>  <SCORE.SYSTEM.norm>  (1) 
0

>  <SCORE.heavy>  (1) 
10

>  <SCORE.norm>  (1) 
-0.173807

>  <TETHERED ATOMS>  (1) 
1,2,3,4,5,7,9,10

>  <skeledock_score>  (1) 
43

$$$$
