F95
     RDKit          3D

 27 27  0  0  0  0  0  0  0  0999 V2000
  -19.7005   12.5160   25.0839 C   0  0  0  0  0  0  0  0  0  0  0  0
  -19.1606   13.6390   25.9056 C   0  0  0  0  0  0  0  0  0  0  0  0
  -18.0514   13.5071   26.4881 O   0  0  0  0  0  0  0  0  0  0  0  0
  -19.9041   14.8558   26.0333 N   0  0  0  0  0  0  0  0  0  0  0  0
  -19.5367   15.8720   27.0199 C   0  0  0  0  0  0  0  0  0  0  0  0
  -19.6048   15.3226   28.4219 C   0  0  0  0  0  0  0  0  0  0  0  0
  -20.8172   14.8438   28.9434 C   0  0  0  0  0  0  0  0  0  0  0  0
  -20.8824   14.3725   30.2582 C   0  0  0  0  0  0  0  0  0  0  0  0
  -19.7358   14.3633   31.0631 C   0  0  0  0  0  0  0  0  0  0  0  0
  -18.5272   14.8500   30.5500 C   0  0  0  0  0  0  0  0  0  0  0  0
  -18.4634   15.3344   29.2407 C   0  0  0  0  0  0  0  0  0  0  0  0
  -19.8225   13.7788   32.7220 S   0  0  0  0  0  0  0  0  0  0  0  0
  -19.8708   14.9439   33.6703 O   0  0  0  0  0  0  0  0  0  0  0  0
  -21.0667   12.9560   32.9071 O   0  0  0  0  0  0  0  0  0  0  0  0
  -18.4339   12.8101   33.0695 N   0  0  0  0  0  0  0  0  0  0  0  0
  -19.8358   12.8547   24.0356 H   0  0  0  0  0  0  0  0  0  0  0  0
  -20.6809   12.1949   25.4936 H   0  0  0  0  0  0  0  0  0  0  0  0
  -19.0040   11.6507   25.0959 H   0  0  0  0  0  0  0  0  0  0  0  0
  -20.7559   14.9807   25.4395 H   0  0  0  0  0  0  0  0  0  0  0  0
  -18.4948   16.2078   26.8273 H   0  0  0  0  0  0  0  0  0  0  0  0
  -20.2075   16.7510   26.9041 H   0  0  0  0  0  0  0  0  0  0  0  0
  -21.7146   14.8421   28.3373 H   0  0  0  0  0  0  0  0  0  0  0  0
  -21.8272   14.0148   30.6471 H   0  0  0  0  0  0  0  0  0  0  0  0
  -17.6373   14.8669   31.1662 H   0  0  0  0  0  0  0  0  0  0  0  0
  -17.5243   15.7219   28.8652 H   0  0  0  0  0  0  0  0  0  0  0  0
  -18.5050   12.5236   34.0716 H   0  0  0  0  0  0  0  0  0  0  0  0
  -18.5202   11.9382   32.5005 H   0  0  0  0  0  0  0  0  0  0  0  0
  1  2  1  0
  2  3  2  0
  2  4  1  0
  4  5  1  0
  5  6  1  0
  6  7  2  0
  7  8  1  0
  8  9  2  0
  9 10  1  0
 10 11  2  0
  9 12  1  0
 12 13  2  0
 12 14  2  0
 12 15  1  0
  6 11  1  0
  1 16  1  0
  1 17  1  0
  1 18  1  0
  4 19  1  0
  5 20  1  0
  5 21  1  0
  7 22  1  0
  8 23  1  0
 10 24  1  0
 11 25  1  0
 15 26  1  0
 15 27  1  0
M  END
>  <CHROM.1>  (1) 
-60.50740426,-61.09835445,-101.39426580,177.41461665,1.47527535,0.22052640
-1.79331079

>  <Name>  (1) 
F95

>  <RI>  (1) 
1.99554e+07

>  <Rbt.Current_Directory>  (1) 
/data/out

>  <Rbt.Executable>  (1) 
rbdock ($Id: //depot/dev/client3/rdock/2013.1/src/exe/rbdock.cxx#4 $)

>  <Rbt.Library>  (1) 
libRbt.so (2013.1, Build901 2013/11/27)

>  <Rbt.Parameter_File>  (1) 
/python_libraries/phenodiscovery/docking/templates/RDOCK_TETHER.conf

>  <Rbt.Receptor>  (1) 
/data/out/rdock-opt/grid/rdock-grid.prm

>  <SCORE>  (1) 
-1.85407

>  <SCORE.INTER>  (1) 
-1.77648

>  <SCORE.INTER.CONST>  (1) 
1

>  <SCORE.INTER.POLAR>  (1) 
-0.632456

>  <SCORE.INTER.REPUL>  (1) 
0

>  <SCORE.INTER.ROT>  (1) 
4

>  <SCORE.INTER.VDW>  (1) 
-9.02613

>  <SCORE.INTER.norm>  (1) 
-0.118432

>  <SCORE.INTRA>  (1) 
-0.0775921

>  <SCORE.INTRA.DIHEDRAL>  (1) 
0.00548647

>  <SCORE.INTRA.DIHEDRAL.0>  (1) 
3.12479

>  <SCORE.INTRA.POLAR>  (1) 
0

>  <SCORE.INTRA.POLAR.0>  (1) 
0

>  <SCORE.INTRA.REPUL>  (1) 
0

>  <SCORE.INTRA.REPUL.0>  (1) 
0

>  <SCORE.INTRA.VDW>  (1) 
-0.0803354

>  <SCORE.INTRA.VDW.0>  (1) 
-1.50442

>  <SCORE.INTRA.norm>  (1) 
-0.00517281

>  <SCORE.RESTR>  (1) 
0

>  <SCORE.RESTR.CAVITY>  (1) 
0

>  <SCORE.RESTR.norm>  (1) 
0

>  <SCORE.SYSTEM>  (1) 
0

>  <SCORE.SYSTEM.CONST>  (1) 
0

>  <SCORE.SYSTEM.DIHEDRAL>  (1) 
0

>  <SCORE.SYSTEM.norm>  (1) 
0

>  <SCORE.heavy>  (1) 
15

>  <SCORE.norm>  (1) 
-0.123605

>  <TETHERED ATOMS>  (1) 
5,6,4,9,1,2,3,8,11,10,7

>  <skeledock_score>  (1) 
66

$$$$
