F488
     RDKit          3D

 38 39  0  0  0  0  0  0  0  0999 V2000
  -25.9601   13.8066   29.7770 C   0  0  0  0  0  0  0  0  0  0  0  0
  -24.8769   14.7412   30.1205 N   0  0  0  0  0  0  0  0  0  0  0  0
  -23.8860   14.1113   31.0268 C   0  0  0  0  0  0  0  0  0  0  0  0
  -22.6942   13.4946   30.2787 C   0  0  0  0  0  0  0  0  0  0  0  0
  -22.0699   14.4728   29.3769 N   0  0  0  0  0  0  0  0  0  0  0  0
  -22.8131   15.6956   29.0453 C   0  0  0  0  0  0  0  0  0  0  0  0
  -24.3012   15.3560   28.8984 C   0  0  0  0  0  0  0  0  0  0  0  0
  -20.7656   14.1829   28.8255 C   0  0  0  0  0  0  0  0  0  0  0  0
  -20.2873   13.0214   28.9428 O   0  0  0  0  0  0  0  0  0  0  0  0
  -19.9417   15.2192   28.1094 C   0  0  0  0  0  0  0  0  0  0  0  0
  -18.6458   14.7145   27.7880 O   0  0  0  0  0  0  0  0  0  0  0  0
  -18.3236   13.9823   26.6325 C   0  0  0  0  0  0  0  0  0  0  0  0
  -18.3492   12.5745   26.5902 C   0  0  0  0  0  0  0  0  0  0  0  0
  -18.0157   11.8979   25.4127 C   0  0  0  0  0  0  0  0  0  0  0  0
  -17.6424   12.6131   24.2656 C   0  0  0  0  0  0  0  0  0  0  0  0
  -17.3230   11.8872   22.9924 C   0  0  0  0  0  0  0  0  0  0  0  0
  -17.6381   14.0148   24.3005 C   0  0  0  0  0  0  0  0  0  0  0  0
  -17.9717   14.6906   25.4775 C   0  0  0  0  0  0  0  0  0  0  0  0
  -26.5010   13.4949   30.6961 H   0  0  0  0  0  0  0  0  0  0  0  0
  -25.5594   12.9040   29.2649 H   0  0  0  0  0  0  0  0  0  0  0  0
  -26.7004   14.3035   29.1130 H   0  0  0  0  0  0  0  0  0  0  0  0
  -23.5008   14.8924   31.7175 H   0  0  0  0  0  0  0  0  0  0  0  0
  -24.3556   13.3360   31.6729 H   0  0  0  0  0  0  0  0  0  0  0  0
  -21.9520   13.1537   31.0333 H   0  0  0  0  0  0  0  0  0  0  0  0
  -23.0313   12.6133   29.6919 H   0  0  0  0  0  0  0  0  0  0  0  0
  -22.4705   16.1341   28.0873 H   0  0  0  0  0  0  0  0  0  0  0  0
  -22.6674   16.4499   29.8482 H   0  0  0  0  0  0  0  0  0  0  0  0
  -24.8609   16.2883   28.6712 H   0  0  0  0  0  0  0  0  0  0  0  0
  -24.4050   14.6796   28.0182 H   0  0  0  0  0  0  0  0  0  0  0  0
  -20.4529   15.5689   27.1862 H   0  0  0  0  0  0  0  0  0  0  0  0
  -19.8341   16.1140   28.7543 H   0  0  0  0  0  0  0  0  0  0  0  0
  -18.6291   11.9917   27.4551 H   0  0  0  0  0  0  0  0  0  0  0  0
  -18.0489   10.8155   25.3961 H   0  0  0  0  0  0  0  0  0  0  0  0
  -16.5968   12.4661   22.3829 H   0  0  0  0  0  0  0  0  0  0  0  0
  -16.8741   10.8945   23.2095 H   0  0  0  0  0  0  0  0  0  0  0  0
  -18.2544   11.7432   22.4061 H   0  0  0  0  0  0  0  0  0  0  0  0
  -17.3759   14.5847   23.4176 H   0  0  0  0  0  0  0  0  0  0  0  0
  -17.9568   15.7731   25.4930 H   0  0  0  0  0  0  0  0  0  0  0  0
  1  2  1  0
  2  3  1  0
  3  4  1  0
  4  5  1  0
  5  6  1  0
  6  7  1  0
  5  8  1  0
  8  9  2  0
  8 10  1  0
 10 11  1  0
 11 12  1  0
 12 13  2  0
 13 14  1  0
 14 15  2  0
 15 16  1  0
 15 17  1  0
 17 18  2  0
  7  2  1  0
 12 18  1  0
  1 19  1  0
  1 20  1  0
  1 21  1  0
  3 22  1  0
  3 23  1  0
  4 24  1  0
  4 25  1  0
  6 26  1  0
  6 27  1  0
  7 28  1  0
  7 29  1  0
 10 30  1  0
 10 31  1  0
 13 32  1  0
 14 33  1  0
 16 34  1  0
 16 35  1  0
 16 36  1  0
 17 37  1  0
 18 38  1  0
M  END
>  <CHROM.1>  (1) 
173.98050745,86.21063992,-92.58772127,-0.57565766,-0.21970196,1.71666893

>  <Name>  (1) 
F488

>  <RI>  (1) 
1.31561e+07

>  <Rbt.Current_Directory>  (1) 
/data/out

>  <Rbt.Executable>  (1) 
rbdock ($Id: //depot/dev/client3/rdock/2013.1/src/exe/rbdock.cxx#4 $)

>  <Rbt.Library>  (1) 
libRbt.so (2013.1, Build901 2013/11/27)

>  <Rbt.Parameter_File>  (1) 
/python_libraries/phenodiscovery/docking/templates/RDOCK_TETHER.conf

>  <Rbt.Receptor>  (1) 
/data/out/rdock-opt/grid/rdock-grid.prm

>  <SCORE>  (1) 
-1.20861

>  <SCORE.INTER>  (1) 
-4.01326

>  <SCORE.INTER.CONST>  (1) 
1

>  <SCORE.INTER.POLAR>  (1) 
0

>  <SCORE.INTER.REPUL>  (1) 
0

>  <SCORE.INTER.ROT>  (1) 
3

>  <SCORE.INTER.VDW>  (1) 
-12.4133

>  <SCORE.INTER.norm>  (1) 
-0.222959

>  <SCORE.INTRA>  (1) 
2.80465

>  <SCORE.INTRA.DIHEDRAL>  (1) 
6.62216

>  <SCORE.INTRA.DIHEDRAL.0>  (1) 
2.232

>  <SCORE.INTRA.POLAR>  (1) 
0

>  <SCORE.INTRA.POLAR.0>  (1) 
0

>  <SCORE.INTRA.REPUL>  (1) 
0

>  <SCORE.INTRA.REPUL.0>  (1) 
0

>  <SCORE.INTRA.VDW>  (1) 
-0.50643

>  <SCORE.INTRA.VDW.0>  (1) 
-0.192712

>  <SCORE.INTRA.norm>  (1) 
0.155814

>  <SCORE.RESTR>  (1) 
0

>  <SCORE.RESTR.CAVITY>  (1) 
0

>  <SCORE.RESTR.norm>  (1) 
0

>  <SCORE.SYSTEM>  (1) 
0

>  <SCORE.SYSTEM.CONST>  (1) 
0

>  <SCORE.SYSTEM.DIHEDRAL>  (1) 
0

>  <SCORE.SYSTEM.norm>  (1) 
0

>  <SCORE.heavy>  (1) 
18

>  <SCORE.norm>  (1) 
-0.0671447

>  <TETHERED ATOMS>  (1) 
10,8,5,2,6,7,18,17,12

>  <skeledock_score>  (1) 
34

$$$$
