F229
     RDKit          3D

 27 28  0  0  0  0  0  0  0  0999 V2000
  -15.2981   13.8720   22.4382 C   0  0  0  0  0  0  0  0  0  0  0  0
  -16.2296   12.7053   22.3828 C   0  0  0  0  0  0  0  0  0  0  0  0
  -16.4882   12.0014   21.2635 N   0  0  0  0  0  0  0  0  0  0  0  0
  -17.3468   11.0451   21.5825 N   0  0  0  0  0  0  0  0  0  0  0  0
  -17.6488   11.1189   22.8915 C   0  0  0  0  0  0  0  0  0  0  0  0
  -16.9502   12.1742   23.4383 C   0  0  0  0  0  0  0  0  0  0  0  0
  -16.9694   12.6282   24.8678 C   0  0  0  0  0  0  0  0  0  0  0  0
  -18.3269   12.5621   25.4078 N   0  0  0  0  0  0  0  0  0  0  0  0
  -18.8404   13.4656   26.4055 C   0  0  0  0  0  0  0  0  0  0  0  0
  -17.9834   14.1454   27.2933 C   0  0  0  0  0  0  0  0  0  0  0  0
  -18.5062   15.0252   28.2458 C   0  0  0  0  0  0  0  0  0  0  0  0
  -19.8841   15.2364   28.3235 C   0  0  0  0  0  0  0  0  0  0  0  0
  -20.7434   14.5631   27.4529 C   0  0  0  0  0  0  0  0  0  0  0  0
  -20.2279   13.6776   26.5010 C   0  0  0  0  0  0  0  0  0  0  0  0
  -21.0813   13.0416   25.6594 F   0  0  0  0  0  0  0  0  0  0  0  0
  -15.8436   14.7692   22.7978 H   0  0  0  0  0  0  0  0  0  0  0  0
  -14.8852   14.0810   21.4290 H   0  0  0  0  0  0  0  0  0  0  0  0
  -14.4591   13.6490   23.1295 H   0  0  0  0  0  0  0  0  0  0  0  0
  -17.7227   10.3450   20.9058 H   0  0  0  0  0  0  0  0  0  0  0  0
  -18.3262   10.4508   23.4073 H   0  0  0  0  0  0  0  0  0  0  0  0
  -16.5690   13.6594   24.9633 H   0  0  0  0  0  0  0  0  0  0  0  0
  -16.3050   11.9610   25.4578 H   0  0  0  0  0  0  0  0  0  0  0  0
  -18.9828   11.8826   24.9601 H   0  0  0  0  0  0  0  0  0  0  0  0
  -16.9135   13.9963   27.2612 H   0  0  0  0  0  0  0  0  0  0  0  0
  -17.8415   15.5443   28.9242 H   0  0  0  0  0  0  0  0  0  0  0  0
  -20.2863   15.9198   29.0600 H   0  0  0  0  0  0  0  0  0  0  0  0
  -21.8113   14.7280   27.5162 H   0  0  0  0  0  0  0  0  0  0  0  0
  1  2  1  0
  2  3  2  0
  3  4  1  0
  4  5  1  0
  5  6  2  0
  6  7  1  0
  7  8  1  0
  8  9  1  0
  9 10  2  0
 10 11  1  0
 11 12  2  0
 12 13  1  0
 13 14  2  0
 14 15  1  0
  6  2  1  0
  9 14  1  0
  1 16  1  0
  1 17  1  0
  1 18  1  0
  4 19  1  0
  5 20  1  0
  7 21  1  0
  7 22  1  0
  8 23  1  0
 10 24  1  0
 11 25  1  0
 12 26  1  0
 13 27  1  0
M  END
>  <CHROM.1>  (1) 
140.19546655,-147.98016163,-24.21660386,-1.04391133,0.01154598,0.96780326

>  <Name>  (1) 
F229

>  <RI>  (1) 
2.41995e+07

>  <Rbt.Current_Directory>  (1) 
/data/out

>  <Rbt.Executable>  (1) 
rbdock ($Id: //depot/dev/client3/rdock/2013.1/src/exe/rbdock.cxx#4 $)

>  <Rbt.Library>  (1) 
libRbt.so (2013.1, Build901 2013/11/27)

>  <Rbt.Parameter_File>  (1) 
/python_libraries/phenodiscovery/docking/templates/RDOCK_TETHER.conf

>  <Rbt.Receptor>  (1) 
/data/out/rdock-opt/grid/rdock-grid.prm

>  <SCORE>  (1) 
-4.30058

>  <SCORE.INTER>  (1) 
-5.69551

>  <SCORE.INTER.CONST>  (1) 
1

>  <SCORE.INTER.POLAR>  (1) 
-1.0198

>  <SCORE.INTER.REPUL>  (1) 
0

>  <SCORE.INTER.ROT>  (1) 
3

>  <SCORE.INTER.VDW>  (1) 
-10.6282

>  <SCORE.INTER.norm>  (1) 
-0.379701

>  <SCORE.INTRA>  (1) 
1.39493

>  <SCORE.INTRA.DIHEDRAL>  (1) 
-0.372166

>  <SCORE.INTRA.DIHEDRAL.0>  (1) 
5.33472

>  <SCORE.INTRA.POLAR>  (1) 
0

>  <SCORE.INTRA.POLAR.0>  (1) 
0

>  <SCORE.INTRA.REPUL>  (1) 
0

>  <SCORE.INTRA.REPUL.0>  (1) 
0

>  <SCORE.INTRA.VDW>  (1) 
1.58102

>  <SCORE.INTRA.VDW.0>  (1) 
-2.20189

>  <SCORE.INTRA.norm>  (1) 
0.0929955

>  <SCORE.RESTR>  (1) 
0

>  <SCORE.RESTR.CAVITY>  (1) 
0

>  <SCORE.RESTR.norm>  (1) 
0

>  <SCORE.SYSTEM>  (1) 
0

>  <SCORE.SYSTEM.CONST>  (1) 
0

>  <SCORE.SYSTEM.DIHEDRAL>  (1) 
0

>  <SCORE.SYSTEM.norm>  (1) 
0

>  <SCORE.heavy>  (1) 
15

>  <SCORE.norm>  (1) 
-0.286705

>  <TETHERED ATOMS>  (1) 
7,8,9,14,13,12,10,11,6

>  <skeledock_score>  (1) 
52

$$$$
