F584
     RDKit          3D

 27 28  0  0  0  0  0  0  0  0999 V2000
  -18.0619   13.4484   25.7049 C   0  0  0  0  0  0  0  0  0  0  0  0
  -18.3536   13.8520   27.0392 O   0  0  0  0  0  0  0  0  0  0  0  0
  -19.1017   14.9910   27.3904 C   0  0  0  0  0  0  0  0  0  0  0  0
  -18.5968   16.2840   27.1684 C   0  0  0  0  0  0  0  0  0  0  0  0
  -19.3501   17.4013   27.5006 C   0  0  0  0  0  0  0  0  0  0  0  0
  -20.6099   17.2497   28.0658 C   0  0  0  0  0  0  0  0  0  0  0  0
  -21.1446   15.9772   28.3258 C   0  0  0  0  0  0  0  0  0  0  0  0
  -22.4595   15.9392   28.9115 N   0  0  0  0  0  0  0  0  0  0  0  0
  -22.8276   15.1061   30.0149 C   0  0  0  0  0  0  0  0  0  0  0  0
  -23.5685   15.5728   30.9212 O   0  0  0  0  0  0  0  0  0  0  0  0
  -22.3929   13.6846   30.0946 C   0  0  0  0  0  0  0  0  0  0  0  0
  -22.2369   13.1070   28.6920 C   0  0  0  0  0  0  0  0  0  0  0  0
  -20.8478   13.3739   28.1197 C   0  0  0  0  0  0  0  0  0  0  0  0
  -20.3856   14.8176   27.9702 C   0  0  0  0  0  0  0  0  0  0  0  0
  -17.4577   12.5186   25.7320 H   0  0  0  0  0  0  0  0  0  0  0  0
  -19.0035   13.2438   25.1532 H   0  0  0  0  0  0  0  0  0  0  0  0
  -17.4767   14.2370   25.1865 H   0  0  0  0  0  0  0  0  0  0  0  0
  -17.6206   16.4371   26.7296 H   0  0  0  0  0  0  0  0  0  0  0  0
  -18.9553   18.3929   27.3189 H   0  0  0  0  0  0  0  0  0  0  0  0
  -21.1746   18.1388   28.3186 H   0  0  0  0  0  0  0  0  0  0  0  0
  -23.0730   16.7715   28.7545 H   0  0  0  0  0  0  0  0  0  0  0  0
  -21.4476   13.6100   30.6748 H   0  0  0  0  0  0  0  0  0  0  0  0
  -23.1709   13.1018   30.6351 H   0  0  0  0  0  0  0  0  0  0  0  0
  -23.0225   13.4864   28.0003 H   0  0  0  0  0  0  0  0  0  0  0  0
  -22.3720   12.0045   28.7516 H   0  0  0  0  0  0  0  0  0  0  0  0
  -20.1087   12.8354   28.7538 H   0  0  0  0  0  0  0  0  0  0  0  0
  -20.8169   12.8975   27.1151 H   0  0  0  0  0  0  0  0  0  0  0  0
  1  2  1  0
  2  3  1  0
  3  4  2  0
  4  5  1  0
  5  6  2  0
  6  7  1  0
  7  8  1  0
  8  9  1  0
  9 10  2  0
  9 11  1  0
 11 12  1  0
 12 13  1  0
 13 14  1  0
  3 14  1  0
 14  7  2  0
  1 15  1  0
  1 16  1  0
  1 17  1  0
  4 18  1  0
  5 19  1  0
  6 20  1  0
  8 21  1  0
 11 22  1  0
 11 23  1  0
 12 24  1  0
 12 25  1  0
 13 26  1  0
 13 27  1  0
M  END
>  <CHROM.1>  (1) 
-68.74966087,0.06945425,-0.56345725,3.09678959

>  <Name>  (1) 
F584

>  <RI>  (1) 
2.61537e+07

>  <Rbt.Current_Directory>  (1) 
/data/out

>  <Rbt.Executable>  (1) 
rbdock ($Id: //depot/dev/client3/rdock/2013.1/src/exe/rbdock.cxx#4 $)

>  <Rbt.Library>  (1) 
libRbt.so (2013.1, Build901 2013/11/27)

>  <Rbt.Parameter_File>  (1) 
/python_libraries/phenodiscovery/docking/templates/RDOCK_TETHER.conf

>  <Rbt.Receptor>  (1) 
/data/out/rdock-opt/grid/rdock-grid.prm

>  <SCORE>  (1) 
-0.318549

>  <SCORE.INTER>  (1) 
-1.23771

>  <SCORE.INTER.CONST>  (1) 
1

>  <SCORE.INTER.POLAR>  (1) 
0

>  <SCORE.INTER.REPUL>  (1) 
0

>  <SCORE.INTER.ROT>  (1) 
1

>  <SCORE.INTER.VDW>  (1) 
-7.63771

>  <SCORE.INTER.norm>  (1) 
-0.0884075

>  <SCORE.INTRA>  (1) 
0.919156

>  <SCORE.INTRA.DIHEDRAL>  (1) 
4.17804

>  <SCORE.INTRA.DIHEDRAL.0>  (1) 
3.74705e-05

>  <SCORE.INTRA.POLAR>  (1) 
0

>  <SCORE.INTRA.POLAR.0>  (1) 
0

>  <SCORE.INTRA.REPUL>  (1) 
0

>  <SCORE.INTRA.REPUL.0>  (1) 
0

>  <SCORE.INTRA.VDW>  (1) 
-1.16986

>  <SCORE.INTRA.VDW.0>  (1) 
0.152687

>  <SCORE.INTRA.norm>  (1) 
0.065654

>  <SCORE.RESTR>  (1) 
0

>  <SCORE.RESTR.CAVITY>  (1) 
0

>  <SCORE.RESTR.norm>  (1) 
0

>  <SCORE.SYSTEM>  (1) 
0

>  <SCORE.SYSTEM.CONST>  (1) 
0

>  <SCORE.SYSTEM.DIHEDRAL>  (1) 
0

>  <SCORE.SYSTEM.norm>  (1) 
0

>  <SCORE.heavy>  (1) 
14

>  <SCORE.norm>  (1) 
-0.0227535

>  <TETHERED ATOMS>  (1) 
2,3,14,13,12,8,9,11

>  <skeledock_score>  (1) 
31

$$$$
