F650
     RDKit          3D

 23 24  0  0  0  0  0  0  0  0999 V2000
  -21.9741   14.1299   27.9081 O   0  0  0  0  0  0  0  0  0  0  0  0
  -20.7205   14.0069   27.8594 C   0  0  0  0  0  0  0  0  0  0  0  0
  -20.1123   13.3889   26.7103 N   0  0  0  0  0  0  0  0  0  0  0  0
  -20.8200   13.2173   25.4518 C   0  0  0  0  0  0  0  0  0  0  0  0
  -20.0330   12.1747   24.6687 C   0  0  0  0  0  0  0  0  0  0  0  0
  -18.6792   12.0590   25.3622 C   0  0  0  0  0  0  0  0  0  0  0  0
  -18.8732   12.6286   26.7610 C   0  0  0  0  0  0  0  0  0  0  0  0
  -19.9180   14.5054   28.9904 C   0  0  0  0  0  0  0  0  0  0  0  0
  -19.0195   13.7821   29.7530 C   0  0  0  0  0  0  0  0  0  0  0  0
  -18.5572   14.5618   30.7498 N   0  0  0  0  0  0  0  0  0  0  0  0
  -19.1450   15.7431   30.6450 N   0  0  0  0  0  0  0  0  0  0  0  0
  -19.9842   15.7433   29.5950 C   0  0  0  0  0  0  0  0  0  0  0  0
  -20.8432   14.1848   24.9056 H   0  0  0  0  0  0  0  0  0  0  0  0
  -21.8580   12.8592   25.6268 H   0  0  0  0  0  0  0  0  0  0  0  0
  -20.5585   11.1954   24.7173 H   0  0  0  0  0  0  0  0  0  0  0  0
  -19.9168   12.4721   23.6038 H   0  0  0  0  0  0  0  0  0  0  0  0
  -17.9288   12.6680   24.8114 H   0  0  0  0  0  0  0  0  0  0  0  0
  -18.3334   11.0031   25.4000 H   0  0  0  0  0  0  0  0  0  0  0  0
  -18.0139   13.2765   27.0238 H   0  0  0  0  0  0  0  0  0  0  0  0
  -18.9690   11.8082   27.5051 H   0  0  0  0  0  0  0  0  0  0  0  0
  -18.7266   12.7520   29.5983 H   0  0  0  0  0  0  0  0  0  0  0  0
  -18.9856   16.5379   31.3025 H   0  0  0  0  0  0  0  0  0  0  0  0
  -20.6304   16.5690   29.3301 H   0  0  0  0  0  0  0  0  0  0  0  0
  1  2  2  0
  2  3  1  0
  3  4  1  0
  4  5  1  0
  5  6  1  0
  6  7  1  0
  2  8  1  0
  8  9  1  0
  9 10  2  0
 10 11  1  0
 11 12  1  0
  7  3  1  0
  8 12  2  0
  4 13  1  0
  4 14  1  0
  5 15  1  0
  5 16  1  0
  6 17  1  0
  6 18  1  0
  7 19  1  0
  7 20  1  0
  9 21  1  0
 11 22  1  0
 12 23  1  0
M  END
>  <CHROM.1>  (1) 
123.59113150,2.59510266,0.64352071,-2.68302095

>  <Name>  (1) 
F650

>  <RI>  (1) 
3.53644e+07

>  <Rbt.Current_Directory>  (1) 
/data/out

>  <Rbt.Executable>  (1) 
rbdock ($Id: //depot/dev/client3/rdock/2013.1/src/exe/rbdock.cxx#4 $)

>  <Rbt.Library>  (1) 
libRbt.so (2013.1, Build901 2013/11/27)

>  <Rbt.Parameter_File>  (1) 
/python_libraries/phenodiscovery/docking/templates/RDOCK_TETHER.conf

>  <Rbt.Receptor>  (1) 
/data/out/rdock-opt/grid/rdock-grid.prm

>  <SCORE>  (1) 
-0.643747

>  <SCORE.INTER>  (1) 
-2.42432

>  <SCORE.INTER.CONST>  (1) 
1

>  <SCORE.INTER.POLAR>  (1) 
0

>  <SCORE.INTER.REPUL>  (1) 
0

>  <SCORE.INTER.ROT>  (1) 
1

>  <SCORE.INTER.VDW>  (1) 
-8.82432

>  <SCORE.INTER.norm>  (1) 
-0.202027

>  <SCORE.INTRA>  (1) 
1.78058

>  <SCORE.INTRA.DIHEDRAL>  (1) 
3.84165

>  <SCORE.INTRA.DIHEDRAL.0>  (1) 
3.44761

>  <SCORE.INTRA.POLAR>  (1) 
0

>  <SCORE.INTRA.POLAR.0>  (1) 
0

>  <SCORE.INTRA.REPUL>  (1) 
0

>  <SCORE.INTRA.REPUL.0>  (1) 
0

>  <SCORE.INTRA.VDW>  (1) 
-0.140248

>  <SCORE.INTRA.VDW.0>  (1) 
-0.35926

>  <SCORE.INTRA.norm>  (1) 
0.148381

>  <SCORE.RESTR>  (1) 
0

>  <SCORE.RESTR.CAVITY>  (1) 
0

>  <SCORE.RESTR.norm>  (1) 
0

>  <SCORE.SYSTEM>  (1) 
0

>  <SCORE.SYSTEM.CONST>  (1) 
0

>  <SCORE.SYSTEM.DIHEDRAL>  (1) 
0

>  <SCORE.SYSTEM.norm>  (1) 
0

>  <SCORE.heavy>  (1) 
12

>  <SCORE.norm>  (1) 
-0.0536456

>  <TETHERED ATOMS>  (1) 
1,2,8,12,11,10,9

>  <skeledock_score>  (1) 
36

$$$$
