F584
     RDKit          3D

 27 28  0  0  0  0  0  0  0  0999 V2000
  -23.1950   12.8312   29.7859 C   0  0  0  0  0  0  0  0  0  0  0  0
  -22.2043   13.4180   28.9478 O   0  0  0  0  0  0  0  0  0  0  0  0
  -20.8544   13.5956   29.2999 C   0  0  0  0  0  0  0  0  0  0  0  0
  -20.3935   13.2619   30.5857 C   0  0  0  0  0  0  0  0  0  0  0  0
  -19.0581   13.4373   30.9249 C   0  0  0  0  0  0  0  0  0  0  0  0
  -18.1630   13.9525   29.9948 C   0  0  0  0  0  0  0  0  0  0  0  0
  -18.5796   14.3040   28.6999 C   0  0  0  0  0  0  0  0  0  0  0  0
  -17.5796   14.8651   27.8174 N   0  0  0  0  0  0  0  0  0  0  0  0
  -17.7509   15.3149   26.4660 C   0  0  0  0  0  0  0  0  0  0  0  0
  -17.1959   16.3898   26.1143 O   0  0  0  0  0  0  0  0  0  0  0  0
  -18.4283   14.4860   25.4094 C   0  0  0  0  0  0  0  0  0  0  0  0
  -19.6301   13.6821   25.9044 C   0  0  0  0  0  0  0  0  0  0  0  0
  -20.4473   14.4436   26.9512 C   0  0  0  0  0  0  0  0  0  0  0  0
  -19.9485   14.1214   28.3426 C   0  0  0  0  0  0  0  0  0  0  0  0
  -24.1647   12.8212   29.2475 H   0  0  0  0  0  0  0  0  0  0  0  0
  -22.9155   11.7853   30.0331 H   0  0  0  0  0  0  0  0  0  0  0  0
  -23.3113   13.4276   30.7154 H   0  0  0  0  0  0  0  0  0  0  0  0
  -21.0625   12.8609   31.3344 H   0  0  0  0  0  0  0  0  0  0  0  0
  -18.7140   13.1750   31.9173 H   0  0  0  0  0  0  0  0  0  0  0  0
  -17.1289   14.0825   30.2892 H   0  0  0  0  0  0  0  0  0  0  0  0
  -16.6647   15.1282   28.2501 H   0  0  0  0  0  0  0  0  0  0  0  0
  -18.7738   15.1649   24.5984 H   0  0  0  0  0  0  0  0  0  0  0  0
  -17.6829   13.7930   24.9644 H   0  0  0  0  0  0  0  0  0  0  0  0
  -19.2887   12.7024   26.3084 H   0  0  0  0  0  0  0  0  0  0  0  0
  -20.2783   13.4538   25.0296 H   0  0  0  0  0  0  0  0  0  0  0  0
  -20.4040   15.5415   26.7812 H   0  0  0  0  0  0  0  0  0  0  0  0
  -21.5123   14.1615   26.8181 H   0  0  0  0  0  0  0  0  0  0  0  0
  1  2  1  0
  2  3  1  0
  3  4  2  0
  4  5  1  0
  5  6  2  0
  6  7  1  0
  7  8  1  0
  8  9  1  0
  9 10  2  0
  9 11  1  0
 11 12  1  0
 12 13  1  0
 13 14  1  0
  3 14  1  0
 14  7  2  0
  1 15  1  0
  1 16  1  0
  1 17  1  0
  4 18  1  0
  5 19  1  0
  6 20  1  0
  8 21  1  0
 11 22  1  0
 11 23  1  0
 12 24  1  0
 12 25  1  0
 13 26  1  0
 13 27  1  0
M  END
>  <CHROM.1>  (1) 
-3.89025619,2.36386618,0.68097430,1.49892568

>  <Name>  (1) 
F584

>  <RI>  (1) 
3.65851e+07

>  <Rbt.Current_Directory>  (1) 
/data/out

>  <Rbt.Executable>  (1) 
rbdock ($Id: //depot/dev/client3/rdock/2013.1/src/exe/rbdock.cxx#4 $)

>  <Rbt.Library>  (1) 
libRbt.so (2013.1, Build901 2013/11/27)

>  <Rbt.Parameter_File>  (1) 
/python_libraries/phenodiscovery/docking/templates/RDOCK_TETHER.conf

>  <Rbt.Receptor>  (1) 
/data/out/rdock-opt/grid/rdock-grid.prm

>  <SCORE>  (1) 
-2.26279

>  <SCORE.INTER>  (1) 
-2.28598

>  <SCORE.INTER.CONST>  (1) 
1

>  <SCORE.INTER.POLAR>  (1) 
0

>  <SCORE.INTER.REPUL>  (1) 
0

>  <SCORE.INTER.ROT>  (1) 
1

>  <SCORE.INTER.VDW>  (1) 
-8.68598

>  <SCORE.INTER.norm>  (1) 
-0.163284

>  <SCORE.INTRA>  (1) 
0.0231917

>  <SCORE.INTRA.DIHEDRAL>  (1) 
0.0213868

>  <SCORE.INTRA.DIHEDRAL.0>  (1) 
2.92829e-05

>  <SCORE.INTRA.POLAR>  (1) 
0

>  <SCORE.INTRA.POLAR.0>  (1) 
0

>  <SCORE.INTRA.REPUL>  (1) 
0

>  <SCORE.INTRA.REPUL.0>  (1) 
0

>  <SCORE.INTRA.VDW>  (1) 
0.0124983

>  <SCORE.INTRA.VDW.0>  (1) 
0.203505

>  <SCORE.INTRA.norm>  (1) 
0.00165655

>  <SCORE.RESTR>  (1) 
0

>  <SCORE.RESTR.CAVITY>  (1) 
0

>  <SCORE.RESTR.norm>  (1) 
0

>  <SCORE.SYSTEM>  (1) 
0

>  <SCORE.SYSTEM.CONST>  (1) 
0

>  <SCORE.SYSTEM.DIHEDRAL>  (1) 
0

>  <SCORE.SYSTEM.norm>  (1) 
0

>  <SCORE.heavy>  (1) 
14

>  <SCORE.norm>  (1) 
-0.161628

>  <TETHERED ATOMS>  (1) 
13,12,11,10,3,14,4,9

>  <skeledock_score>  (1) 
31

$$$$
