F374
     RDKit          3D

 18 18  0  0  0  0  0  0  0  0999 V2000
  -17.8247   12.8771   25.6247 C   0  0  0  0  0  0  0  0  0  0  0  0
  -18.1073   12.4312   27.0557 C   0  0  0  0  0  0  0  0  0  0  0  0
  -19.0644   13.3261   27.7050 N   0  0  0  0  0  0  0  0  0  0  0  0
  -20.4706   13.2382   27.4319 C   0  0  0  0  0  0  0  0  0  0  0  0
  -20.9028   12.3634   26.6333 O   0  0  0  0  0  0  0  0  0  0  0  0
  -21.4295   14.1462   28.0831 C   0  0  0  0  0  0  0  0  0  0  0  0
  -22.7869   14.2471   27.8558 C   0  0  0  0  0  0  0  0  0  0  0  0
  -23.2359   15.2118   28.6733 N   0  0  0  0  0  0  0  0  0  0  0  0
  -22.2099   15.6783   29.3660 N   0  0  0  0  0  0  0  0  0  0  0  0
  -21.0948   15.0468   29.0285 N   0  0  0  0  0  0  0  0  0  0  0  0
  -17.0958   12.1837   25.1547 H   0  0  0  0  0  0  0  0  0  0  0  0
  -17.3974   13.9023   25.6212 H   0  0  0  0  0  0  0  0  0  0  0  0
  -18.7625   12.8679   25.0295 H   0  0  0  0  0  0  0  0  0  0  0  0
  -17.1543   12.4302   27.6276 H   0  0  0  0  0  0  0  0  0  0  0  0
  -18.5175   11.3984   27.0415 H   0  0  0  0  0  0  0  0  0  0  0  0
  -18.7190   14.0316   28.3935 H   0  0  0  0  0  0  0  0  0  0  0  0
  -23.4012   13.6797   27.1701 H   0  0  0  0  0  0  0  0  0  0  0  0
  -24.2194   15.5495   28.7629 H   0  0  0  0  0  0  0  0  0  0  0  0
  1  2  1  0
  2  3  1  0
  3  4  1  0
  4  5  2  0
  4  6  1  0
  6  7  2  0
  7  8  1  0
  8  9  1  0
  9 10  2  0
 10  6  1  0
  1 11  1  0
  1 12  1  0
  1 13  1  0
  2 14  1  0
  2 15  1  0
  3 16  1  0
  7 17  1  0
  8 18  1  0
M  END
>  <CHROM.1>  (1) 
78.02985221,175.07872250,0.63219234,0.13762389,-2.20737636

>  <Name>  (1) 
F374

>  <RI>  (1) 
1.33978e+07

>  <Rbt.Current_Directory>  (1) 
/data/out

>  <Rbt.Executable>  (1) 
rbdock ($Id: //depot/dev/client3/rdock/2013.1/src/exe/rbdock.cxx#4 $)

>  <Rbt.Library>  (1) 
libRbt.so (2013.1, Build901 2013/11/27)

>  <Rbt.Parameter_File>  (1) 
/python_libraries/phenodiscovery/docking/templates/RDOCK_TETHER.conf

>  <Rbt.Receptor>  (1) 
/data/out/rdock-opt/grid/rdock-grid.prm

>  <SCORE>  (1) 
-3.44589

>  <SCORE.INTER>  (1) 
-3.43075

>  <SCORE.INTER.CONST>  (1) 
1

>  <SCORE.INTER.POLAR>  (1) 
-0.913316

>  <SCORE.INTER.REPUL>  (1) 
0

>  <SCORE.INTER.ROT>  (1) 
2

>  <SCORE.INTER.VDW>  (1) 
-7.72547

>  <SCORE.INTER.norm>  (1) 
-0.343075

>  <SCORE.INTRA>  (1) 
-0.0151377

>  <SCORE.INTRA.DIHEDRAL>  (1) 
-0.0109781

>  <SCORE.INTRA.DIHEDRAL.0>  (1) 
1.32978

>  <SCORE.INTRA.POLAR>  (1) 
0

>  <SCORE.INTRA.POLAR.0>  (1) 
0

>  <SCORE.INTRA.REPUL>  (1) 
0

>  <SCORE.INTRA.REPUL.0>  (1) 
0

>  <SCORE.INTRA.VDW>  (1) 
-0.00964866

>  <SCORE.INTRA.VDW.0>  (1) 
-0.960398

>  <SCORE.INTRA.norm>  (1) 
-0.00151377

>  <SCORE.RESTR>  (1) 
0

>  <SCORE.RESTR.CAVITY>  (1) 
0

>  <SCORE.RESTR.norm>  (1) 
0

>  <SCORE.SYSTEM>  (1) 
0

>  <SCORE.SYSTEM.CONST>  (1) 
0

>  <SCORE.SYSTEM.DIHEDRAL>  (1) 
0

>  <SCORE.SYSTEM.norm>  (1) 
0

>  <SCORE.heavy>  (1) 
10

>  <SCORE.norm>  (1) 
-0.344589

>  <TETHERED ATOMS>  (1) 
1,2,3,4,6,10,9,8,7

>  <skeledock_score>  (1) 
30

$$$$
