F740
     RDKit          3D

 26 28  0  0  0  0  0  0  0  0999 V2000
  -20.9526   14.0327   28.5839 O   0  0  0  0  0  0  0  0  0  0  0  0
  -20.9339   15.2939   28.5721 C   0  0  0  0  0  0  0  0  0  0  0  0
  -22.1076   16.0232   28.9606 N   0  0  0  0  0  0  0  0  0  0  0  0
  -23.2702   15.3486   29.5308 C   0  0  0  0  0  0  0  0  0  0  0  0
  -24.5878   16.0583   29.2630 C   0  0  0  0  0  0  0  0  0  0  0  0
  -23.9410   16.1441   30.6360 C   0  0  0  0  0  0  0  0  0  0  0  0
  -19.7035   15.9985   28.1395 C   0  0  0  0  0  0  0  0  0  0  0  0
  -19.7730   17.2622   27.4908 C   0  0  0  0  0  0  0  0  0  0  0  0
  -18.6006   17.9281   27.0890 C   0  0  0  0  0  0  0  0  0  0  0  0
  -17.3812   17.3147   27.3525 C   0  0  0  0  0  0  0  0  0  0  0  0
  -16.1092   17.7668   27.0592 O   0  0  0  0  0  0  0  0  0  0  0  0
  -15.1723   16.7882   27.5306 C   0  0  0  0  0  0  0  0  0  0  0  0
  -15.9759   15.7511   28.1107 O   0  0  0  0  0  0  0  0  0  0  0  0
  -17.3022   16.1150   27.9788 C   0  0  0  0  0  0  0  0  0  0  0  0
  -18.4356   15.4223   28.3937 C   0  0  0  0  0  0  0  0  0  0  0  0
  -22.1996   17.0309   28.7020 H   0  0  0  0  0  0  0  0  0  0  0  0
  -23.2694   14.2418   29.6239 H   0  0  0  0  0  0  0  0  0  0  0  0
  -24.5220   16.9990   28.6751 H   0  0  0  0  0  0  0  0  0  0  0  0
  -25.4704   15.3858   29.2212 H   0  0  0  0  0  0  0  0  0  0  0  0
  -24.4379   15.5228   31.4105 H   0  0  0  0  0  0  0  0  0  0  0  0
  -23.4837   17.1317   30.8613 H   0  0  0  0  0  0  0  0  0  0  0  0
  -20.7241   17.7462   27.3151 H   0  0  0  0  0  0  0  0  0  0  0  0
  -18.6449   18.8907   26.5969 H   0  0  0  0  0  0  0  0  0  0  0  0
  -14.5070   17.2330   28.3001 H   0  0  0  0  0  0  0  0  0  0  0  0
  -14.5795   16.3846   26.6830 H   0  0  0  0  0  0  0  0  0  0  0  0
  -18.3339   14.4645   28.8880 H   0  0  0  0  0  0  0  0  0  0  0  0
  1  2  2  0
  2  3  1  0
  3  4  1  0
  4  5  1  0
  5  6  1  0
  2  7  1  0
  7  8  2  0
  8  9  1  0
  9 10  2  0
 10 11  1  0
 11 12  1  0
 12 13  1  0
 13 14  1  0
 14 15  2  0
  6  4  1  0
  7 15  1  0
 10 14  1  0
  3 16  1  0
  4 17  1  0
  5 18  1  0
  5 19  1  0
  6 20  1  0
  6 21  1  0
  8 22  1  0
  9 23  1  0
 12 24  1  0
 12 25  1  0
 15 26  1  0
M  END
>  <CHROM.1>  (1) 
-151.69022804,148.86816491,-0.39859659,0.38841547,0.00644572

>  <Name>  (1) 
F740

>  <RI>  (1) 
2.07429e+07

>  <Rbt.Current_Directory>  (1) 
/data/out

>  <Rbt.Executable>  (1) 
rbdock ($Id: //depot/dev/client3/rdock/2013.1/src/exe/rbdock.cxx#4 $)

>  <Rbt.Library>  (1) 
libRbt.so (2013.1, Build901 2013/11/27)

>  <Rbt.Parameter_File>  (1) 
/python_libraries/phenodiscovery/docking/templates/RDOCK_TETHER.conf

>  <Rbt.Receptor>  (1) 
/data/out/rdock-opt/grid/rdock-grid.prm

>  <SCORE>  (1) 
1.52401

>  <SCORE.INTER>  (1) 
-0.151697

>  <SCORE.INTER.CONST>  (1) 
1

>  <SCORE.INTER.POLAR>  (1) 
0

>  <SCORE.INTER.REPUL>  (1) 
0.00053106

>  <SCORE.INTER.ROT>  (1) 
2

>  <SCORE.INTER.VDW>  (1) 
-7.55435

>  <SCORE.INTER.norm>  (1) 
-0.0101131

>  <SCORE.INTRA>  (1) 
1.6757

>  <SCORE.INTRA.DIHEDRAL>  (1) 
1.72281

>  <SCORE.INTRA.DIHEDRAL.0>  (1) 
2.98512

>  <SCORE.INTRA.POLAR>  (1) 
0

>  <SCORE.INTRA.POLAR.0>  (1) 
0

>  <SCORE.INTRA.REPUL>  (1) 
0

>  <SCORE.INTRA.REPUL.0>  (1) 
0

>  <SCORE.INTRA.VDW>  (1) 
0.814297

>  <SCORE.INTRA.VDW.0>  (1) 
-1.38612

>  <SCORE.INTRA.norm>  (1) 
0.111713

>  <SCORE.RESTR>  (1) 
0

>  <SCORE.RESTR.CAVITY>  (1) 
0

>  <SCORE.RESTR.norm>  (1) 
0

>  <SCORE.SYSTEM>  (1) 
0

>  <SCORE.SYSTEM.CONST>  (1) 
0

>  <SCORE.SYSTEM.DIHEDRAL>  (1) 
0

>  <SCORE.SYSTEM.norm>  (1) 
0

>  <SCORE.heavy>  (1) 
15

>  <SCORE.norm>  (1) 
0.1016

>  <TETHERED ATOMS>  (1) 
2,3,4,6,1,5

>  <skeledock_score>  (1) 
12

$$$$
