F367
     RDKit          3D

 31 32  0  0  0  0  0  0  0  0999 V2000
  -27.0117   16.5166   28.4260 C   0  0  0  0  0  0  0  0  0  0  0  0
  -26.3791   15.7102   29.5549 C   0  0  0  0  0  0  0  0  0  0  0  0
  -25.1555   15.0583   29.0981 N   0  0  0  0  0  0  0  0  0  0  0  0
  -23.9827   15.6672   28.8405 C   0  0  0  0  0  0  0  0  0  0  0  0
  -23.0781   14.6992   28.4682 C   0  0  0  0  0  0  0  0  0  0  0  0
  -21.6177   14.8864   28.2174 C   0  0  0  0  0  0  0  0  0  0  0  0
  -20.8591   13.7764   28.7917 N   0  0  0  0  0  0  0  0  0  0  0  0
  -19.4916   13.4938   28.4594 C   0  0  0  0  0  0  0  0  0  0  0  0
  -18.7363   13.0344   29.3580 O   0  0  0  0  0  0  0  0  0  0  0  0
  -18.9524   13.6840   27.0897 C   0  0  0  0  0  0  0  0  0  0  0  0
  -19.6999   13.2772   25.9729 C   0  0  0  0  0  0  0  0  0  0  0  0
  -19.2048   13.4806   24.6838 C   0  0  0  0  0  0  0  0  0  0  0  0
  -17.9633   14.0931   24.5163 C   0  0  0  0  0  0  0  0  0  0  0  0
  -17.2569   14.5034   25.6011 N   0  0  0  0  0  0  0  0  0  0  0  0
  -17.7206   14.3251   26.8667 C   0  0  0  0  0  0  0  0  0  0  0  0
  -23.7676   13.5032   28.5483 C   0  0  0  0  0  0  0  0  0  0  0  0
  -25.0357   13.7498   28.9307 N   0  0  0  0  0  0  0  0  0  0  0  0
  -27.2330   15.8540   27.5625 H   0  0  0  0  0  0  0  0  0  0  0  0
  -27.9597   16.9736   28.7801 H   0  0  0  0  0  0  0  0  0  0  0  0
  -26.3264   17.3270   28.0993 H   0  0  0  0  0  0  0  0  0  0  0  0
  -27.1067   14.9438   29.9006 H   0  0  0  0  0  0  0  0  0  0  0  0
  -26.1474   16.3793   30.4115 H   0  0  0  0  0  0  0  0  0  0  0  0
  -23.7946   16.7284   28.9442 H   0  0  0  0  0  0  0  0  0  0  0  0
  -21.4289   14.9245   27.1234 H   0  0  0  0  0  0  0  0  0  0  0  0
  -21.3172   15.8560   28.6663 H   0  0  0  0  0  0  0  0  0  0  0  0
  -21.2892   13.2483   29.5850 H   0  0  0  0  0  0  0  0  0  0  0  0
  -20.6613   12.7942   26.0966 H   0  0  0  0  0  0  0  0  0  0  0  0
  -19.7762   13.1603   23.8223 H   0  0  0  0  0  0  0  0  0  0  0  0
  -17.5652   14.2515   23.5230 H   0  0  0  0  0  0  0  0  0  0  0  0
  -17.1367   14.7091   27.6913 H   0  0  0  0  0  0  0  0  0  0  0  0
  -23.3665   12.5154   28.3638 H   0  0  0  0  0  0  0  0  0  0  0  0
  1  2  1  0
  2  3  1  0
  3  4  1  0
  4  5  2  0
  5  6  1  0
  6  7  1  0
  7  8  1  0
  8  9  2  0
  8 10  1  0
 10 11  2  0
 11 12  1  0
 12 13  2  0
 13 14  1  0
 14 15  2  0
  5 16  1  0
 16 17  2  0
 17  3  1  0
 10 15  1  0
  1 18  1  0
  1 19  1  0
  1 20  1  0
  2 21  1  0
  2 22  1  0
  4 23  1  0
  6 24  1  0
  6 25  1  0
  7 26  1  0
 11 27  1  0
 12 28  1  0
 13 29  1  0
 15 30  1  0
 16 31  1  0
M  END
>  <CHROM.1>  (1) 
72.58614101,138.38598239,164.79198378,-42.86932668,2.69109427,-0.22886265
1.63391491

>  <Name>  (1) 
F367

>  <RI>  (1) 
2.57513e+07

>  <Rbt.Current_Directory>  (1) 
/data/out

>  <Rbt.Executable>  (1) 
rbdock ($Id: //depot/dev/client3/rdock/2013.1/src/exe/rbdock.cxx#4 $)

>  <Rbt.Library>  (1) 
libRbt.so (2013.1, Build901 2013/11/27)

>  <Rbt.Parameter_File>  (1) 
/python_libraries/phenodiscovery/docking/templates/RDOCK_TETHER.conf

>  <Rbt.Receptor>  (1) 
/data/out/rdock-opt/grid/rdock-grid.prm

>  <SCORE>  (1) 
-1.63538

>  <SCORE.INTER>  (1) 
-2.76822

>  <SCORE.INTER.CONST>  (1) 
1

>  <SCORE.INTER.POLAR>  (1) 
0

>  <SCORE.INTER.REPUL>  (1) 
0.000221264

>  <SCORE.INTER.ROT>  (1) 
4

>  <SCORE.INTER.VDW>  (1) 
-12.1693

>  <SCORE.INTER.norm>  (1) 
-0.162836

>  <SCORE.INTRA>  (1) 
1.13284

>  <SCORE.INTRA.DIHEDRAL>  (1) 
3.25742

>  <SCORE.INTRA.DIHEDRAL.0>  (1) 
7.51951

>  <SCORE.INTRA.POLAR>  (1) 
0

>  <SCORE.INTRA.POLAR.0>  (1) 
0

>  <SCORE.INTRA.REPUL>  (1) 
0

>  <SCORE.INTRA.REPUL.0>  (1) 
0

>  <SCORE.INTRA.VDW>  (1) 
-0.495868

>  <SCORE.INTRA.VDW.0>  (1) 
-1.95866

>  <SCORE.INTRA.norm>  (1) 
0.0666378

>  <SCORE.RESTR>  (1) 
0

>  <SCORE.RESTR.CAVITY>  (1) 
0

>  <SCORE.RESTR.norm>  (1) 
0

>  <SCORE.SYSTEM>  (1) 
0

>  <SCORE.SYSTEM.CONST>  (1) 
0

>  <SCORE.SYSTEM.DIHEDRAL>  (1) 
0

>  <SCORE.SYSTEM.norm>  (1) 
0

>  <SCORE.heavy>  (1) 
17

>  <SCORE.norm>  (1) 
-0.0961986

>  <TETHERED ATOMS>  (1) 
2,3,4,5,6,7,8,10,15,14,13,11,12

>  <skeledock_score>  (1) 
55

$$$$
