F603
     RDKit          3D

 24 25  0  0  0  0  0  0  0  0999 V2000
  -23.6087   14.9070   30.7174 C   0  0  0  0  0  0  0  0  0  0  0  0
  -23.9222   14.8093   28.9698 S   0  0  0  0  0  0  0  0  0  0  0  0
  -23.9363   16.1962   28.3914 O   0  0  0  0  0  0  0  0  0  0  0  0
  -25.2568   14.1577   28.7389 O   0  0  0  0  0  0  0  0  0  0  0  0
  -22.6390   13.8408   28.2017 C   0  0  0  0  0  0  0  0  0  0  0  0
  -21.3076   14.5087   28.3389 C   0  0  0  0  0  0  0  0  0  0  0  0
  -21.1471   15.8564   28.2525 N   0  0  0  0  0  0  0  0  0  0  0  0
  -19.8149   16.0036   28.3669 C   0  0  0  0  0  0  0  0  0  0  0  0
  -19.0805   17.1867   28.3281 C   0  0  0  0  0  0  0  0  0  0  0  0
  -17.6795   17.0905   28.4385 C   0  0  0  0  0  0  0  0  0  0  0  0
  -17.0567   15.8282   28.5792 C   0  0  0  0  0  0  0  0  0  0  0  0
  -17.8305   14.6531   28.6145 C   0  0  0  0  0  0  0  0  0  0  0  0
  -19.2125   14.7894   28.5077 C   0  0  0  0  0  0  0  0  0  0  0  0
  -20.1439   13.8290   28.4944 N   0  0  0  0  0  0  0  0  0  0  0  0
  -23.6032   13.8858   31.1515 H   0  0  0  0  0  0  0  0  0  0  0  0
  -22.6233   15.3862   30.8916 H   0  0  0  0  0  0  0  0  0  0  0  0
  -24.4027   15.5099   31.2044 H   0  0  0  0  0  0  0  0  0  0  0  0
  -22.8863   13.7144   27.1264 H   0  0  0  0  0  0  0  0  0  0  0  0
  -22.6000   12.8367   28.6733 H   0  0  0  0  0  0  0  0  0  0  0  0
  -19.5678   18.1461   28.2116 H   0  0  0  0  0  0  0  0  0  0  0  0
  -17.0756   17.9882   28.4114 H   0  0  0  0  0  0  0  0  0  0  0  0
  -15.9793   15.7654   28.6595 H   0  0  0  0  0  0  0  0  0  0  0  0
  -17.3677   13.6804   28.7181 H   0  0  0  0  0  0  0  0  0  0  0  0
  -20.0023   12.7962   28.5567 H   0  0  0  0  0  0  0  0  0  0  0  0
  1  2  1  0
  2  3  2  0
  2  4  2  0
  2  5  1  0
  5  6  1  0
  6  7  2  0
  7  8  1  0
  8  9  2  0
  9 10  1  0
 10 11  2  0
 11 12  1  0
 12 13  2  0
 13 14  1  0
 14  6  1  0
  8 13  1  0
  1 15  1  0
  1 16  1  0
  1 17  1  0
  5 18  1  0
  5 19  1  0
  9 20  1  0
 10 21  1  0
 11 22  1  0
 12 23  1  0
 14 24  1  0
M  END
>  <CHROM.1>  (1) 
-63.85003083,-37.72358447,3.10608502,0.13834019,0.70334685

>  <Name>  (1) 
F603

>  <RI>  (1) 
2.37944e+07

>  <Rbt.Current_Directory>  (1) 
/data/out

>  <Rbt.Executable>  (1) 
rbdock ($Id: //depot/dev/client3/rdock/2013.1/src/exe/rbdock.cxx#4 $)

>  <Rbt.Library>  (1) 
libRbt.so (2013.1, Build901 2013/11/27)

>  <Rbt.Parameter_File>  (1) 
/python_libraries/phenodiscovery/docking/templates/RDOCK_TETHER.conf

>  <Rbt.Receptor>  (1) 
/data/out/rdock-opt/grid/rdock-grid.prm

>  <SCORE>  (1) 
-2.69854

>  <SCORE.INTER>  (1) 
-2.46038

>  <SCORE.INTER.CONST>  (1) 
1

>  <SCORE.INTER.POLAR>  (1) 
0

>  <SCORE.INTER.REPUL>  (1) 
0.08898

>  <SCORE.INTER.ROT>  (1) 
2

>  <SCORE.INTER.VDW>  (1) 
-10.3053

>  <SCORE.INTER.norm>  (1) 
-0.175742

>  <SCORE.INTRA>  (1) 
-0.238157

>  <SCORE.INTRA.DIHEDRAL>  (1) 
-0.0871625

>  <SCORE.INTRA.DIHEDRAL.0>  (1) 
1.38877

>  <SCORE.INTRA.POLAR>  (1) 
0

>  <SCORE.INTRA.POLAR.0>  (1) 
0

>  <SCORE.INTRA.REPUL>  (1) 
0

>  <SCORE.INTRA.REPUL.0>  (1) 
0

>  <SCORE.INTRA.VDW>  (1) 
-0.194576

>  <SCORE.INTRA.VDW.0>  (1) 
-1.81196

>  <SCORE.INTRA.norm>  (1) 
-0.0170112

>  <SCORE.RESTR>  (1) 
0

>  <SCORE.RESTR.CAVITY>  (1) 
0

>  <SCORE.RESTR.norm>  (1) 
0

>  <SCORE.SYSTEM>  (1) 
0

>  <SCORE.SYSTEM.CONST>  (1) 
0

>  <SCORE.SYSTEM.DIHEDRAL>  (1) 
0

>  <SCORE.SYSTEM.norm>  (1) 
0

>  <SCORE.heavy>  (1) 
14

>  <SCORE.norm>  (1) 
-0.192753

>  <TETHERED ATOMS>  (1) 
6,14,13,12,1,2,5,7,11

>  <skeledock_score>  (1) 
37

$$$$
