F275
     RDKit          3D

 20 20  0  0  0  0  0  0  0  0999 V2000
  -17.3914   12.4265   30.3758 C   0  0  0  0  0  0  0  0  0  0  0  0
  -18.5098   13.4131   30.2128 C   0  0  0  0  0  0  0  0  0  0  0  0
  -19.0344   14.0617   31.3405 C   0  0  0  0  0  0  0  0  0  0  0  0
  -20.0787   14.9804   31.2020 C   0  0  0  0  0  0  0  0  0  0  0  0
  -20.5836   15.6009   32.2967 F   0  0  0  0  0  0  0  0  0  0  0  0
  -20.6049   15.2585   29.9376 C   0  0  0  0  0  0  0  0  0  0  0  0
  -20.0847   14.6208   28.8027 C   0  0  0  0  0  0  0  0  0  0  0  0
  -19.0405   13.6962   28.9436 C   0  0  0  0  0  0  0  0  0  0  0  0
  -20.7450   14.9556   27.2047 S   0  0  0  0  0  0  0  0  0  0  0  0
  -19.9160   16.0141   26.5335 O   0  0  0  0  0  0  0  0  0  0  0  0
  -22.1591   15.4521   27.3212 O   0  0  0  0  0  0  0  0  0  0  0  0
  -20.7257   13.5123   26.2536 N   0  0  0  0  0  0  0  0  0  0  0  0
  -17.0818   11.9955   29.4000 H   0  0  0  0  0  0  0  0  0  0  0  0
  -17.7189   11.5977   31.0382 H   0  0  0  0  0  0  0  0  0  0  0  0
  -16.5134   12.9303   30.8321 H   0  0  0  0  0  0  0  0  0  0  0  0
  -18.6345   13.8530   32.3254 H   0  0  0  0  0  0  0  0  0  0  0  0
  -21.4172   15.9679   29.8462 H   0  0  0  0  0  0  0  0  0  0  0  0
  -18.6449   13.1988   28.0663 H   0  0  0  0  0  0  0  0  0  0  0  0
  -21.4080   12.8508   26.6874 H   0  0  0  0  0  0  0  0  0  0  0  0
  -21.1048   13.7621   25.3129 H   0  0  0  0  0  0  0  0  0  0  0  0
  1  2  1  0
  2  3  2  0
  3  4  1  0
  4  5  1  0
  4  6  2  0
  6  7  1  0
  7  8  2  0
  7  9  1  0
  9 10  2  0
  9 11  2  0
  9 12  1  0
  2  8  1  0
  1 13  1  0
  1 14  1  0
  1 15  1  0
  3 16  1  0
  6 17  1  0
  8 18  1  0
 12 19  1  0
 12 20  1  0
M  END
>  <CHROM.1>  (1) 
95.42506358,67.07391508,-1.19258735,0.75730897,-1.53468445

>  <Name>  (1) 
F275

>  <RI>  (1) 
3.50912e+07

>  <Rbt.Current_Directory>  (1) 
/data/out

>  <Rbt.Executable>  (1) 
rbdock ($Id: //depot/dev/client3/rdock/2013.1/src/exe/rbdock.cxx#4 $)

>  <Rbt.Library>  (1) 
libRbt.so (2013.1, Build901 2013/11/27)

>  <Rbt.Parameter_File>  (1) 
/python_libraries/phenodiscovery/docking/templates/RDOCK_TETHER.conf

>  <Rbt.Receptor>  (1) 
/data/out/rdock-opt/grid/rdock-grid.prm

>  <SCORE>  (1) 
0.439405

>  <SCORE.INTER>  (1) 
0.351905

>  <SCORE.INTER.CONST>  (1) 
1

>  <SCORE.INTER.POLAR>  (1) 
0

>  <SCORE.INTER.REPUL>  (1) 
0

>  <SCORE.INTER.ROT>  (1) 
2

>  <SCORE.INTER.VDW>  (1) 
-7.0481

>  <SCORE.INTER.norm>  (1) 
0.0293254

>  <SCORE.INTRA>  (1) 
0.0875

>  <SCORE.INTRA.DIHEDRAL>  (1) 
0.061066

>  <SCORE.INTRA.DIHEDRAL.0>  (1) 
1.20195

>  <SCORE.INTRA.POLAR>  (1) 
0

>  <SCORE.INTRA.POLAR.0>  (1) 
0

>  <SCORE.INTRA.REPUL>  (1) 
0

>  <SCORE.INTRA.REPUL.0>  (1) 
0

>  <SCORE.INTRA.VDW>  (1) 
0.056967

>  <SCORE.INTRA.VDW.0>  (1) 
-0.975752

>  <SCORE.INTRA.norm>  (1) 
0.00729166

>  <SCORE.RESTR>  (1) 
0

>  <SCORE.RESTR.CAVITY>  (1) 
0

>  <SCORE.RESTR.norm>  (1) 
0

>  <SCORE.SYSTEM>  (1) 
0

>  <SCORE.SYSTEM.CONST>  (1) 
0

>  <SCORE.SYSTEM.DIHEDRAL>  (1) 
0

>  <SCORE.SYSTEM.norm>  (1) 
0

>  <SCORE.heavy>  (1) 
12

>  <SCORE.norm>  (1) 
0.036617

>  <TETHERED ATOMS>  (1) 
2,8,7,6,3,4,9,10

>  <skeledock_score>  (1) 
41

$$$$
