F274
     RDKit          3D

 26 27  0  0  0  0  0  0  0  0999 V2000
  -18.4489   13.2178   31.5311 C   0  0  0  0  0  0  0  0  0  0  0  0
  -19.4533   13.5178   30.4692 C   0  0  0  0  0  0  0  0  0  0  0  0
  -19.2165   13.5557   29.1107 C   0  0  0  0  0  0  0  0  0  0  0  0
  -20.4492   13.8739   28.5825 C   0  0  0  0  0  0  0  0  0  0  0  0
  -20.7754   14.0443   27.1315 C   0  0  0  0  0  0  0  0  0  0  0  0
  -19.5510   14.2988   26.3617 N   0  0  0  0  0  0  0  0  0  0  0  0
  -18.7292   15.2597   26.7962 N   0  0  0  0  0  0  0  0  0  0  0  0
  -17.5686   15.5678   26.1596 C   0  0  0  0  0  0  0  0  0  0  0  0
  -16.6744   16.6300   26.7118 C   0  0  0  0  0  0  0  0  0  0  0  0
  -17.2069   14.8550   25.0173 C   0  0  0  0  0  0  0  0  0  0  0  0
  -18.0513   13.8539   24.5505 C   0  0  0  0  0  0  0  0  0  0  0  0
  -19.2346   13.5788   25.2373 C   0  0  0  0  0  0  0  0  0  0  0  0
  -19.9931   12.6656   24.8141 O   0  0  0  0  0  0  0  0  0  0  0  0
  -21.3138   14.0029   29.5625 O   0  0  0  0  0  0  0  0  0  0  0  0
  -20.7481   13.7948   30.7166 N   0  0  0  0  0  0  0  0  0  0  0  0
  -17.4522   13.0220   31.0819 H   0  0  0  0  0  0  0  0  0  0  0  0
  -18.7698   12.3221   32.1025 H   0  0  0  0  0  0  0  0  0  0  0  0
  -18.3699   14.0831   32.2217 H   0  0  0  0  0  0  0  0  0  0  0  0
  -18.2871   13.3804   28.5846 H   0  0  0  0  0  0  0  0  0  0  0  0
  -21.3083   13.1354   26.7803 H   0  0  0  0  0  0  0  0  0  0  0  0
  -21.4723   14.9006   27.0046 H   0  0  0  0  0  0  0  0  0  0  0  0
  -17.1952   17.2008   27.5098 H   0  0  0  0  0  0  0  0  0  0  0  0
  -15.7629   16.1632   27.1403 H   0  0  0  0  0  0  0  0  0  0  0  0
  -16.3806   17.3358   25.9063 H   0  0  0  0  0  0  0  0  0  0  0  0
  -16.2821   15.0713   24.4968 H   0  0  0  0  0  0  0  0  0  0  0  0
  -17.7849   13.2921   23.6635 H   0  0  0  0  0  0  0  0  0  0  0  0
  1  2  1  0
  2  3  1  0
  3  4  2  0
  4  5  1  0
  5  6  1  0
  6  7  1  0
  7  8  2  0
  8  9  1  0
  8 10  1  0
 10 11  2  0
 11 12  1  0
 12 13  2  0
  4 14  1  0
 14 15  1  0
  2 15  2  0
 12  6  1  0
  1 16  1  0
  1 17  1  0
  1 18  1  0
  3 19  1  0
  5 20  1  0
  5 21  1  0
  9 22  1  0
  9 23  1  0
  9 24  1  0
 10 25  1  0
 11 26  1  0
M  END
>  <CHROM.1>  (1) 
-20.03660061,-50.41990500,-2.13956986,-0.73696980,-1.66628322

>  <Name>  (1) 
F274

>  <RI>  (1) 
4.04353e+07

>  <Rbt.Current_Directory>  (1) 
/data/out

>  <Rbt.Executable>  (1) 
rbdock ($Id: //depot/dev/client3/rdock/2013.1/src/exe/rbdock.cxx#4 $)

>  <Rbt.Library>  (1) 
libRbt.so (2013.1, Build901 2013/11/27)

>  <Rbt.Parameter_File>  (1) 
/python_libraries/phenodiscovery/docking/templates/RDOCK_TETHER.conf

>  <Rbt.Receptor>  (1) 
/data/out/rdock-opt/grid/rdock-grid.prm

>  <SCORE>  (1) 
-2.56625

>  <SCORE.INTER>  (1) 
-1.79684

>  <SCORE.INTER.CONST>  (1) 
1

>  <SCORE.INTER.POLAR>  (1) 
0

>  <SCORE.INTER.REPUL>  (1) 
0

>  <SCORE.INTER.ROT>  (1) 
2

>  <SCORE.INTER.VDW>  (1) 
-9.19684

>  <SCORE.INTER.norm>  (1) 
-0.119789

>  <SCORE.INTRA>  (1) 
-0.769404

>  <SCORE.INTRA.DIHEDRAL>  (1) 
-1.73886

>  <SCORE.INTRA.DIHEDRAL.0>  (1) 
4.84247

>  <SCORE.INTRA.POLAR>  (1) 
0

>  <SCORE.INTRA.POLAR.0>  (1) 
0

>  <SCORE.INTRA.REPUL>  (1) 
0

>  <SCORE.INTRA.REPUL.0>  (1) 
0

>  <SCORE.INTRA.VDW>  (1) 
0.100025

>  <SCORE.INTRA.VDW.0>  (1) 
-0.901955

>  <SCORE.INTRA.norm>  (1) 
-0.0512936

>  <SCORE.RESTR>  (1) 
0

>  <SCORE.RESTR.CAVITY>  (1) 
0

>  <SCORE.RESTR.norm>  (1) 
0

>  <SCORE.SYSTEM>  (1) 
0

>  <SCORE.SYSTEM.CONST>  (1) 
0

>  <SCORE.SYSTEM.DIHEDRAL>  (1) 
0

>  <SCORE.SYSTEM.norm>  (1) 
0

>  <SCORE.heavy>  (1) 
15

>  <SCORE.norm>  (1) 
-0.171083

>  <TETHERED ATOMS>  (1) 
2,3,4,5,6,7,8,13,15,9

>  <skeledock_score>  (1) 
39

$$$$
