F535
     RDKit          3D

 22 23  0  0  0  0  0  0  0  0999 V2000
  -18.7649   14.3543   25.0771 C   0  0  0  0  0  0  0  0  0  0  0  0
  -20.1577   14.1922   25.4929 N   0  0  0  0  0  0  0  0  0  0  0  0
  -20.2755   13.1062   26.4728 C   0  0  0  0  0  0  0  0  0  0  0  0
  -19.5584   13.4635   27.7413 C   0  0  0  0  0  0  0  0  0  0  0  0
  -18.5227   12.7643   28.2629 N   0  0  0  0  0  0  0  0  0  0  0  0
  -18.1410   13.3831   29.3768 N   0  0  0  0  0  0  0  0  0  0  0  0
  -18.9530   14.4473   29.5102 C   0  0  0  0  0  0  0  0  0  0  0  0
  -18.9231   15.3988   30.5257 C   0  0  0  0  0  0  0  0  0  0  0  0
  -19.8653   16.4400   30.4636 C   0  0  0  0  0  0  0  0  0  0  0  0
  -20.7964   16.4982   29.4056 C   0  0  0  0  0  0  0  0  0  0  0  0
  -20.7750   15.5083   28.4104 C   0  0  0  0  0  0  0  0  0  0  0  0
  -19.8447   14.5247   28.5143 N   0  0  0  0  0  0  0  0  0  0  0  0
  -18.7011   15.1530   24.3082 H   0  0  0  0  0  0  0  0  0  0  0  0
  -18.1371   14.6600   25.9416 H   0  0  0  0  0  0  0  0  0  0  0  0
  -18.3684   13.4109   24.6403 H   0  0  0  0  0  0  0  0  0  0  0  0
  -20.7091   13.9245   24.6433 H   0  0  0  0  0  0  0  0  0  0  0  0
  -21.3466   12.9125   26.7051 H   0  0  0  0  0  0  0  0  0  0  0  0
  -19.8185   12.1740   26.0732 H   0  0  0  0  0  0  0  0  0  0  0  0
  -18.2021   15.3415   31.3310 H   0  0  0  0  0  0  0  0  0  0  0  0
  -19.8767   17.2013   31.2327 H   0  0  0  0  0  0  0  0  0  0  0  0
  -21.5209   17.3007   29.3602 H   0  0  0  0  0  0  0  0  0  0  0  0
  -21.4767   15.5323   27.5864 H   0  0  0  0  0  0  0  0  0  0  0  0
  1  2  1  0
  2  3  1  0
  3  4  1  0
  4  5  2  0
  5  6  1  0
  6  7  2  0
  7  8  1  0
  8  9  2  0
  9 10  1  0
 10 11  2  0
 11 12  1  0
 12  4  1  0
 12  7  1  0
  1 13  1  0
  1 14  1  0
  1 15  1  0
  2 16  1  0
  3 17  1  0
  3 18  1  0
  8 19  1  0
  9 20  1  0
 10 21  1  0
 11 22  1  0
M  END
>  <CHROM.1>  (1) 
65.58235876,-119.45715383,-1.54938917,0.84634756,-1.98284328

>  <Name>  (1) 
F535

>  <RI>  (1) 
9.20869e+06

>  <Rbt.Current_Directory>  (1) 
/data/out

>  <Rbt.Executable>  (1) 
rbdock ($Id: //depot/dev/client3/rdock/2013.1/src/exe/rbdock.cxx#4 $)

>  <Rbt.Library>  (1) 
libRbt.so (2013.1, Build901 2013/11/27)

>  <Rbt.Parameter_File>  (1) 
/python_libraries/phenodiscovery/docking/templates/RDOCK_TETHER.conf

>  <Rbt.Receptor>  (1) 
/data/out/rdock-opt/grid/rdock-grid.prm

>  <SCORE>  (1) 
-0.746545

>  <SCORE.INTER>  (1) 
-0.351942

>  <SCORE.INTER.CONST>  (1) 
1

>  <SCORE.INTER.POLAR>  (1) 
0

>  <SCORE.INTER.REPUL>  (1) 
0

>  <SCORE.INTER.ROT>  (1) 
2

>  <SCORE.INTER.VDW>  (1) 
-7.75194

>  <SCORE.INTER.norm>  (1) 
-0.0293285

>  <SCORE.INTRA>  (1) 
-0.394602

>  <SCORE.INTRA.DIHEDRAL>  (1) 
-0.0969972

>  <SCORE.INTRA.DIHEDRAL.0>  (1) 
1.47092

>  <SCORE.INTRA.POLAR>  (1) 
0

>  <SCORE.INTRA.POLAR.0>  (1) 
0

>  <SCORE.INTRA.REPUL>  (1) 
0

>  <SCORE.INTRA.REPUL.0>  (1) 
0

>  <SCORE.INTRA.VDW>  (1) 
-0.346104

>  <SCORE.INTRA.VDW.0>  (1) 
-0.280816

>  <SCORE.INTRA.norm>  (1) 
-0.0328835

>  <SCORE.RESTR>  (1) 
0

>  <SCORE.RESTR.CAVITY>  (1) 
0

>  <SCORE.RESTR.norm>  (1) 
0

>  <SCORE.SYSTEM>  (1) 
0

>  <SCORE.SYSTEM.CONST>  (1) 
0

>  <SCORE.SYSTEM.DIHEDRAL>  (1) 
0

>  <SCORE.SYSTEM.norm>  (1) 
0

>  <SCORE.heavy>  (1) 
12

>  <SCORE.norm>  (1) 
-0.062212

>  <TETHERED ATOMS>  (1) 
7,8,9,10,11,1,2,3,4,12,6

>  <skeledock_score>  (1) 
50

$$$$
