F709
     RDKit          3D

 29 30  0  0  0  0  0  0  0  0999 V2000
  -17.9449   11.6785   23.4381 N   0  0  0  0  0  0  0  0  0  0  0  0
  -18.6636   11.8620   24.6604 C   0  0  0  0  0  0  0  0  0  0  0  0
  -19.5776   11.0472   24.9607 O   0  0  0  0  0  0  0  0  0  0  0  0
  -18.3469   12.9454   25.5558 N   0  0  0  0  0  0  0  0  0  0  0  0
  -17.6231   14.1316   25.0720 C   0  0  0  0  0  0  0  0  0  0  0  0
  -18.0836   15.3948   25.8102 C   0  0  0  0  0  0  0  0  0  0  0  0
  -18.1510   15.1845   27.2627 N   0  0  0  0  0  0  0  0  0  0  0  0
  -17.9496   13.8488   27.8304 C   0  0  0  0  0  0  0  0  0  0  0  0
  -18.6782   12.8054   26.9819 C   0  0  0  0  0  0  0  0  0  0  0  0
  -18.5696   16.2620   28.1128 C   0  0  0  0  0  0  0  0  0  0  0  0
  -19.6003   16.1271   28.8249 O   0  0  0  0  0  0  0  0  0  0  0  0
  -17.8122   17.5211   28.1807 C   0  0  0  0  0  0  0  0  0  0  0  0
  -16.5140   17.7225   27.7520 C   0  0  0  0  0  0  0  0  0  0  0  0
  -16.2287   19.0402   28.0377 C   0  0  0  0  0  0  0  0  0  0  0  0
  -17.3640   19.5593   28.6257 C   0  0  0  0  0  0  0  0  0  0  0  0
  -18.2884   18.6296   28.7000 O   0  0  0  0  0  0  0  0  0  0  0  0
  -18.2245   10.9188   22.7787 H   0  0  0  0  0  0  0  0  0  0  0  0
  -17.0890   12.2327   23.2172 H   0  0  0  0  0  0  0  0  0  0  0  0
  -17.8081   14.2901   23.9876 H   0  0  0  0  0  0  0  0  0  0  0  0
  -16.5327   13.9823   25.2270 H   0  0  0  0  0  0  0  0  0  0  0  0
  -19.0930   15.6803   25.4417 H   0  0  0  0  0  0  0  0  0  0  0  0
  -17.3840   16.2213   25.5702 H   0  0  0  0  0  0  0  0  0  0  0  0
  -18.3222   13.7963   28.8770 H   0  0  0  0  0  0  0  0  0  0  0  0
  -16.8617   13.6221   27.8445 H   0  0  0  0  0  0  0  0  0  0  0  0
  -18.3827   11.7950   27.3401 H   0  0  0  0  0  0  0  0  0  0  0  0
  -19.7758   12.9201   27.1149 H   0  0  0  0  0  0  0  0  0  0  0  0
  -15.8445   16.9977   27.3082 H   0  0  0  0  0  0  0  0  0  0  0  0
  -15.2988   19.5595   27.8488 H   0  0  0  0  0  0  0  0  0  0  0  0
  -17.4879   20.5740   28.9796 H   0  0  0  0  0  0  0  0  0  0  0  0
  1  2  1  0
  2  3  2  0
  2  4  1  0
  4  5  1  0
  5  6  1  0
  6  7  1  0
  7  8  1  0
  8  9  1  0
  7 10  1  0
 10 11  2  0
 10 12  1  0
 12 13  2  0
 13 14  1  0
 14 15  2  0
 15 16  1  0
  9  4  1  0
 16 12  1  0
  1 17  1  0
  1 18  1  0
  5 19  1  0
  5 20  1  0
  6 21  1  0
  6 22  1  0
  8 23  1  0
  8 24  1  0
  9 25  1  0
  9 26  1  0
 13 27  1  0
 14 28  1  0
 15 29  1  0
M  END
>  <CHROM.1>  (1) 
-16.91814662,-1.01666451,1.50568096,0.30354185

>  <Name>  (1) 
F709

>  <RI>  (1) 
3.32476e+07

>  <Rbt.Current_Directory>  (1) 
/data/out

>  <Rbt.Executable>  (1) 
rbdock ($Id: //depot/dev/client3/rdock/2013.1/src/exe/rbdock.cxx#4 $)

>  <Rbt.Library>  (1) 
libRbt.so (2013.1, Build901 2013/11/27)

>  <Rbt.Parameter_File>  (1) 
/python_libraries/phenodiscovery/docking/templates/RDOCK_TETHER.conf

>  <Rbt.Receptor>  (1) 
/data/out/rdock-opt/grid/rdock-grid.prm

>  <SCORE>  (1) 
-2.40423

>  <SCORE.INTER>  (1) 
-2.37182

>  <SCORE.INTER.CONST>  (1) 
1

>  <SCORE.INTER.POLAR>  (1) 
0

>  <SCORE.INTER.REPUL>  (1) 
0

>  <SCORE.INTER.ROT>  (1) 
1

>  <SCORE.INTER.VDW>  (1) 
-8.77182

>  <SCORE.INTER.norm>  (1) 
-0.148239

>  <SCORE.INTRA>  (1) 
-0.0324136

>  <SCORE.INTRA.DIHEDRAL>  (1) 
0.172386

>  <SCORE.INTRA.DIHEDRAL.0>  (1) 
0.740509

>  <SCORE.INTRA.POLAR>  (1) 
0

>  <SCORE.INTRA.POLAR.0>  (1) 
0

>  <SCORE.INTRA.REPUL>  (1) 
0

>  <SCORE.INTRA.REPUL.0>  (1) 
0

>  <SCORE.INTRA.VDW>  (1) 
-0.118607

>  <SCORE.INTRA.VDW.0>  (1) 
-0.793991

>  <SCORE.INTRA.norm>  (1) 
-0.00202585

>  <SCORE.RESTR>  (1) 
0

>  <SCORE.RESTR.CAVITY>  (1) 
0

>  <SCORE.RESTR.norm>  (1) 
0

>  <SCORE.SYSTEM>  (1) 
0

>  <SCORE.SYSTEM.CONST>  (1) 
0

>  <SCORE.SYSTEM.DIHEDRAL>  (1) 
0

>  <SCORE.SYSTEM.norm>  (1) 
0

>  <SCORE.heavy>  (1) 
16

>  <SCORE.norm>  (1) 
-0.150265

>  <TETHERED ATOMS>  (1) 
4,1,10,2,8,9

>  <skeledock_score>  (1) 
21

$$$$
