
     RDKit          3D

 19 19  0  0  0  0  0  0  0  0999 V2000
  -23.0021   12.8730   33.6126 Br  0  0  0  0  0  0  0  0  0  0  0  0
  -23.1700   12.8689   31.7500 C   0  0  0  0  0  0  0  0  0  0  0  0
  -22.6958   11.8319   31.0061 C   0  0  0  0  0  0  0  0  0  0  0  0
  -22.2196   11.0022   31.4551 H   0  0  0  0  0  0  0  0  0  0  0  0
  -22.8238   11.8331   29.5841 C   0  0  0  0  0  0  0  0  0  0  0  0
  -22.3973   10.9327   28.8496 O   0  0  0  0  0  0  0  0  0  0  0  0
  -23.4627   12.9250   28.9880 N   0  0  0  0  0  0  0  0  0  0  0  0
  -23.6234   12.9663   27.5335 C   0  0  0  0  0  0  0  0  0  0  0  0
  -23.9457   13.9706   27.2323 H   0  0  0  0  0  0  0  0  0  0  0  0
  -22.6528   12.8106   27.0445 H   0  0  0  0  0  0  0  0  0  0  0  0
  -24.6390   11.9398   27.0351 C   0  0  0  0  0  0  0  0  0  0  0  0
  -25.6177   12.0763   27.5066 H   0  0  0  0  0  0  0  0  0  0  0  0
  -24.3002   10.9240   27.2642 H   0  0  0  0  0  0  0  0  0  0  0  0
  -24.7958   12.0426   25.6247 O   0  0  0  0  0  0  0  0  0  0  0  0
  -25.4322   11.3572   25.3527 H   0  0  0  0  0  0  0  0  0  0  0  0
  -23.9415   13.9860   29.7485 C   0  0  0  0  0  0  0  0  0  0  0  0
  -24.4037   14.7746   29.2066 H   0  0  0  0  0  0  0  0  0  0  0  0
  -23.8040   13.9679   31.1053 C   0  0  0  0  0  0  0  0  0  0  0  0
  -24.1666   14.7716   31.6936 H   0  0  0  0  0  0  0  0  0  0  0  0
  1  2  1  0
  2  3  2  0
  2 18  1  0
  3  4  1  0
  3  5  1  0
  5  6  2  0
  5  7  1  0
  7  8  1  0
  7 16  1  0
  8  9  1  0
  8 10  1  0
  8 11  1  0
 11 12  1  0
 11 13  1  0
 11 14  1  0
 14 15  1  0
 16 17  1  0
 16 18  2  0
 18 19  1  0
M  END
$$$$
