
     RDKit          3D

 23 24  0  0  0  0  0  0  0  0999 V2000
  -23.7262   15.3365   29.3599 O   0  0  0  0  0  0  0  0  0  0  0  0
  -23.9490   14.1334   29.4515 C   0  0  0  0  0  0  0  0  0  0  0  0
  -23.9818   13.5959   30.7279 N   0  0  0  0  0  0  0  0  0  0  0  0
  -24.1198   12.1944   31.1088 C   0  0  0  0  0  0  0  0  0  0  0  0
  -25.0082   11.7421   30.6664 H   0  0  0  0  0  0  0  0  0  0  0  0
  -23.2292   11.6605   30.7611 H   0  0  0  0  0  0  0  0  0  0  0  0
  -24.2148   12.2077   32.6300 C   0  0  0  0  0  0  0  0  0  0  0  0
  -25.2635   12.3047   32.9371 H   0  0  0  0  0  0  0  0  0  0  0  0
  -23.8087   11.3012   33.0847 H   0  0  0  0  0  0  0  0  0  0  0  0
  -23.4507   13.4646   33.0165 C   0  0  0  0  0  0  0  0  0  0  0  0
  -22.3728   13.2635   32.9967 H   0  0  0  0  0  0  0  0  0  0  0  0
  -23.7140   13.8380   34.0098 H   0  0  0  0  0  0  0  0  0  0  0  0
  -23.8205   14.4352   31.9072 C   0  0  0  0  0  0  0  0  0  0  0  0
  -23.0595   15.2055   31.7534 H   0  0  0  0  0  0  0  0  0  0  0  0
  -24.7832   14.9215   32.1038 H   0  0  0  0  0  0  0  0  0  0  0  0
  -24.1090   13.2837   28.2870 C   0  0  0  0  0  0  0  0  0  0  0  0
  -25.2058   12.5063   28.0599 C   0  0  0  0  0  0  0  0  0  0  0  0
  -26.0989   12.3793   28.6155 H   0  0  0  0  0  0  0  0  0  0  0  0
  -24.9647   11.8503   26.9136 N   0  0  0  0  0  0  0  0  0  0  0  0
  -25.6134   11.1734   26.4676 H   0  0  0  0  0  0  0  0  0  0  0  0
  -23.7484   12.1657   26.3881 N   0  0  0  0  0  0  0  0  0  0  0  0
  -23.2376   13.0215   27.2268 C   0  0  0  0  0  0  0  0  0  0  0  0
  -22.2724   13.4430   27.1054 H   0  0  0  0  0  0  0  0  0  0  0  0
  1  2  2  0
  2  3  1  0
  2 16  1  0
  3  4  1  0
  3 13  1  0
  4  5  1  0
  4  6  1  0
  4  7  1  0
  7  8  1  0
  7  9  1  0
  7 10  1  0
 10 11  1  0
 10 12  1  0
 10 13  1  0
 13 14  1  0
 13 15  1  0
 16 17  2  0
 16 22  1  0
 17 18  1  0
 17 19  1  0
 19 20  1  0
 19 21  1  0
 21 22  2  0
 22 23  1  0
M  END
$$$$
