
     RDKit          3D

 27 27  0  0  0  0  0  0  0  0999 V2000
  -16.5524   17.4221   26.9911 S   0  0  0  0  0  0  0  0  0  0  0  0
  -15.4828   17.2214   27.9439 O   0  0  0  0  0  0  0  0  0  0  0  0
  -16.3350   18.0865   25.7247 O   0  0  0  0  0  0  0  0  0  0  0  0
  -17.7730   18.2682   27.7897 N   0  0  0  0  0  0  0  0  0  0  0  0
  -17.6793   18.2151   28.8067 H   0  0  0  0  0  0  0  0  0  0  0  0
  -18.7041   18.0181   27.4478 H   0  0  0  0  0  0  0  0  0  0  0  0
  -17.3344   15.8779   26.6882 C   0  0  0  0  0  0  0  0  0  0  0  0
  -18.1983   15.7181   25.6008 C   0  0  0  0  0  0  0  0  0  0  0  0
  -18.3573   16.5305   24.9345 H   0  0  0  0  0  0  0  0  0  0  0  0
  -18.8569   14.5123   25.3897 C   0  0  0  0  0  0  0  0  0  0  0  0
  -19.5126   14.4095   24.5619 H   0  0  0  0  0  0  0  0  0  0  0  0
  -18.6669   13.4452   26.2656 C   0  0  0  0  0  0  0  0  0  0  0  0
  -19.4335   12.1651   26.0781 C   0  0  0  0  0  0  0  0  0  0  0  0
  -18.9991   11.3578   26.6808 H   0  0  0  0  0  0  0  0  0  0  0  0
  -19.3980   11.8371   25.0320 H   0  0  0  0  0  0  0  0  0  0  0  0
  -20.8177   12.3420   26.4615 N   0  0  0  0  0  0  0  0  0  0  0  0
  -21.5220   12.0977   25.7868 H   0  0  0  0  0  0  0  0  0  0  0  0
  -21.1715   12.8072   27.6516 C   0  0  0  0  0  0  0  0  0  0  0  0
  -20.3473   13.1143   28.5000 O   0  0  0  0  0  0  0  0  0  0  0  0
  -22.6517   12.9148   27.8818 C   0  0  0  0  0  0  0  0  0  0  0  0
  -23.1179   13.4790   27.0690 H   0  0  0  0  0  0  0  0  0  0  0  0
  -23.0897   11.9135   27.9267 H   0  0  0  0  0  0  0  0  0  0  0  0
  -22.8416   13.4333   28.8256 H   0  0  0  0  0  0  0  0  0  0  0  0
  -17.8161   13.6000   27.3572 C   0  0  0  0  0  0  0  0  0  0  0  0
  -17.6755   12.7981   28.0380 H   0  0  0  0  0  0  0  0  0  0  0  0
  -17.1579   14.8075   27.5683 C   0  0  0  0  0  0  0  0  0  0  0  0
  -16.5206   14.9208   28.4106 H   0  0  0  0  0  0  0  0  0  0  0  0
  1  2  2  0
  1  3  2  0
  1  4  1  0
  1  7  1  0
  4  5  1  0
  4  6  1  0
  7  8  1  0
  7 26  2  0
  8  9  1  0
  8 10  2  0
 10 11  1  0
 10 12  1  0
 12 13  1  0
 12 24  2  0
 13 14  1  0
 13 15  1  0
 13 16  1  0
 16 17  1  0
 16 18  1  0
 18 19  2  0
 18 20  1  0
 20 21  1  0
 20 22  1  0
 20 23  1  0
 24 25  1  0
 24 26  1  0
 26 27  1  0
M  END
$$$$
