
     RDKit          3D

 29 30  0  0  0  0  0  0  0  0999 V2000
  -20.2485   14.0603   26.9646 O   0  0  0  0  0  0  0  0  0  0  0  0
  -19.1335   14.5359   26.8541 C   0  0  0  0  0  0  0  0  0  0  0  0
  -18.1058   13.9287   27.4143 N   0  0  0  0  0  0  0  0  0  0  0  0
  -18.3099   13.0925   27.9381 H   0  0  0  0  0  0  0  0  0  0  0  0
  -17.1781   14.3128   27.3826 H   0  0  0  0  0  0  0  0  0  0  0  0
  -18.8312   15.8244   26.1343 C   0  0  0  0  0  0  0  0  0  0  0  0
  -17.9454   15.6370   25.5150 H   0  0  0  0  0  0  0  0  0  0  0  0
  -19.6622   16.0729   25.4658 H   0  0  0  0  0  0  0  0  0  0  0  0
  -18.5391   16.9690   27.0953 C   0  0  0  0  0  0  0  0  0  0  0  0
  -17.7612   16.6563   27.8020 H   0  0  0  0  0  0  0  0  0  0  0  0
  -19.4078   17.2432   27.7018 H   0  0  0  0  0  0  0  0  0  0  0  0
  -18.0301   18.1667   26.4015 N   0  0  0  0  0  0  0  0  0  0  0  0
  -18.7415   19.2489   26.1046 C   0  0  0  0  0  0  0  0  0  0  0  0
  -20.1844   19.4890   26.3850 C   0  0  0  0  0  0  0  0  0  0  0  0
  -20.4322   20.4914   26.0326 H   0  0  0  0  0  0  0  0  0  0  0  0
  -20.3330   19.4088   27.4609 H   0  0  0  0  0  0  0  0  0  0  0  0
  -20.7525   18.7346   25.8390 H   0  0  0  0  0  0  0  0  0  0  0  0
  -17.9478   20.1033   25.4992 N   0  0  0  0  0  0  0  0  0  0  0  0
  -18.2567   21.0295   25.1615 H   0  0  0  0  0  0  0  0  0  0  0  0
  -16.6880   19.5851   25.3481 C   0  0  0  0  0  0  0  0  0  0  0  0
  -16.7248   18.3330   25.9136 C   0  0  0  0  0  0  0  0  0  0  0  0
  -15.5990   17.5028   25.9114 C   0  0  0  0  0  0  0  0  0  0  0  0
  -15.6283   16.5314   26.3312 H   0  0  0  0  0  0  0  0  0  0  0  0
  -14.4351   17.9989   25.3334 C   0  0  0  0  0  0  0  0  0  0  0  0
  -13.5581   17.3998   25.3161 H   0  0  0  0  0  0  0  0  0  0  0  0
  -14.4002   19.2954   24.7619 C   0  0  0  0  0  0  0  0  0  0  0  0
  -13.4961   19.6469   24.3288 H   0  0  0  0  0  0  0  0  0  0  0  0
  -15.5311   20.1049   24.7624 C   0  0  0  0  0  0  0  0  0  0  0  0
  -15.5189   21.0737   24.3335 H   0  0  0  0  0  0  0  0  0  0  0  0
  1  2  2  0
  2  3  1  0
  2  6  1  0
  3  4  1  0
  3  5  1  0
  6  7  1  0
  6  8  1  0
  6  9  1  0
  9 10  1  0
  9 11  1  0
  9 12  1  0
 12 13  2  0
 12 21  1  0
 13 14  1  0
 13 18  1  0
 14 15  1  0
 14 16  1  0
 14 17  1  0
 18 19  1  0
 18 20  1  0
 20 21  1  0
 20 28  2  0
 21 22  2  0
 22 23  1  0
 22 24  1  0
 24 25  1  0
 24 26  2  0
 26 27  1  0
 26 28  1  0
 28 29  1  0
M  END
$$$$
