
     RDKit          3D

 29 30  0  0  0  0  0  0  0  0999 V2000
  -24.0864   12.7873   26.0145 O   0  0  0  0  0  0  0  0  0  0  0  0
  -24.7571   12.8483   27.0284 C   0  0  0  0  0  0  0  0  0  0  0  0
  -25.4279   11.7876   27.4327 N   0  0  0  0  0  0  0  0  0  0  0  0
  -25.3649   10.9681   26.8500 H   0  0  0  0  0  0  0  0  0  0  0  0
  -26.0266   11.8115   28.2391 H   0  0  0  0  0  0  0  0  0  0  0  0
  -24.9141   14.0915   27.8649 C   0  0  0  0  0  0  0  0  0  0  0  0
  -24.7183   14.9426   27.2010 H   0  0  0  0  0  0  0  0  0  0  0  0
  -25.9493   14.1686   28.2137 H   0  0  0  0  0  0  0  0  0  0  0  0
  -23.9374   14.1302   29.0326 C   0  0  0  0  0  0  0  0  0  0  0  0
  -23.7968   15.1702   29.3503 H   0  0  0  0  0  0  0  0  0  0  0  0
  -22.9440   13.7576   28.7645 H   0  0  0  0  0  0  0  0  0  0  0  0
  -24.4371   13.3887   30.2054 N   0  0  0  0  0  0  0  0  0  0  0  0
  -25.2577   13.8708   31.1325 C   0  0  0  0  0  0  0  0  0  0  0  0
  -25.8358   15.2414   31.2058 C   0  0  0  0  0  0  0  0  0  0  0  0
  -26.4880   15.2840   32.0794 H   0  0  0  0  0  0  0  0  0  0  0  0
  -26.4014   15.4143   30.2913 H   0  0  0  0  0  0  0  0  0  0  0  0
  -25.0048   15.9407   31.3079 H   0  0  0  0  0  0  0  0  0  0  0  0
  -25.4846   12.9185   32.0090 N   0  0  0  0  0  0  0  0  0  0  0  0
  -26.0928   13.0361   32.8357 H   0  0  0  0  0  0  0  0  0  0  0  0
  -24.7826   11.7834   31.6974 C   0  0  0  0  0  0  0  0  0  0  0  0
  -24.0927   12.0711   30.5440 C   0  0  0  0  0  0  0  0  0  0  0  0
  -23.2428   11.1301   29.9533 C   0  0  0  0  0  0  0  0  0  0  0  0
  -22.6971   11.3538   29.0742 H   0  0  0  0  0  0  0  0  0  0  0  0
  -23.1370    9.8854   30.5652 C   0  0  0  0  0  0  0  0  0  0  0  0
  -22.5048    9.1429   30.1442 H   0  0  0  0  0  0  0  0  0  0  0  0
  -23.8598    9.5907   31.7482 C   0  0  0  0  0  0  0  0  0  0  0  0
  -23.7591    8.6307   32.1917 H   0  0  0  0  0  0  0  0  0  0  0  0
  -24.6927   10.5408   32.3295 C   0  0  0  0  0  0  0  0  0  0  0  0
  -25.2340   10.3342   33.2167 H   0  0  0  0  0  0  0  0  0  0  0  0
  1  2  2  0
  2  3  1  0
  2  6  1  0
  3  4  1  0
  3  5  1  0
  6  7  1  0
  6  8  1  0
  6  9  1  0
  9 10  1  0
  9 11  1  0
  9 12  1  0
 12 13  2  0
 12 21  1  0
 13 14  1  0
 13 18  1  0
 14 15  1  0
 14 16  1  0
 14 17  1  0
 18 19  1  0
 18 20  1  0
 20 21  1  0
 20 28  2  0
 21 22  2  0
 22 23  1  0
 22 24  1  0
 24 25  1  0
 24 26  2  0
 26 27  1  0
 26 28  1  0
 28 29  1  0
M  END
$$$$
