
     RDKit          3D

 29 30  0  0  0  0  0  0  0  0999 V2000
  -14.4004   18.3765   25.3624 C   0  0  0  0  0  0  0  0  0  0  0  0
  -14.9449   18.4204   24.4139 H   0  0  0  0  0  0  0  0  0  0  0  0
  -13.3571   18.1150   25.1526 H   0  0  0  0  0  0  0  0  0  0  0  0
  -14.3908   19.3805   25.8008 H   0  0  0  0  0  0  0  0  0  0  0  0
  -15.0231   17.3657   26.3201 C   0  0  0  0  0  0  0  0  0  0  0  0
  -14.2517   17.3409   27.5215 O   0  0  0  0  0  0  0  0  0  0  0  0
  -13.3376   17.1208   27.2735 H   0  0  0  0  0  0  0  0  0  0  0  0
  -16.4560   17.6791   26.6091 C   0  0  0  0  0  0  0  0  0  0  0  0
  -17.4710   16.7688   26.8800 C   0  0  0  0  0  0  0  0  0  0  0  0
  -17.3565   15.7138   26.9076 H   0  0  0  0  0  0  0  0  0  0  0  0
  -18.6060   17.3753   27.1009 N   0  0  0  0  0  0  0  0  0  0  0  0
  -18.3293   18.7033   26.9672 N   0  0  0  0  0  0  0  0  0  0  0  0
  -19.3579   19.6998   27.1394 C   0  0  0  0  0  0  0  0  0  0  0  0
  -18.8553   20.6720   27.2431 H   0  0  0  0  0  0  0  0  0  0  0  0
  -20.3609   19.7828   25.9898 C   0  0  0  0  0  0  0  0  0  0  0  0
  -19.9402   20.2718   25.1052 H   0  0  0  0  0  0  0  0  0  0  0  0
  -20.7038   18.7875   25.6827 H   0  0  0  0  0  0  0  0  0  0  0  0
  -21.5316   20.5665   26.5759 C   0  0  0  0  0  0  0  0  0  0  0  0
  -21.4388   21.6311   26.3314 H   0  0  0  0  0  0  0  0  0  0  0  0
  -22.4860   20.2193   26.1664 H   0  0  0  0  0  0  0  0  0  0  0  0
  -21.4600   20.3762   28.0913 C   0  0  0  0  0  0  0  0  0  0  0  0
  -22.3813   19.9386   28.4909 H   0  0  0  0  0  0  0  0  0  0  0  0
  -21.3205   21.3481   28.5802 H   0  0  0  0  0  0  0  0  0  0  0  0
  -20.2577   19.4755   28.3529 C   0  0  0  0  0  0  0  0  0  0  0  0
  -20.5869   18.4308   28.4197 H   0  0  0  0  0  0  0  0  0  0  0  0
  -19.7562   19.7214   29.2951 H   0  0  0  0  0  0  0  0  0  0  0  0
  -17.0259   18.9051   26.6699 C   0  0  0  0  0  0  0  0  0  0  0  0
  -16.6217   19.8744   26.5347 H   0  0  0  0  0  0  0  0  0  0  0  0
  -14.9586   16.3631   25.8787 H   0  0  0  0  0  0  0  0  0  0  0  0
  1  2  1  0
  1  3  1  0
  1  4  1  0
  1  5  1  0
  5  6  1  0
  5  8  1  0
  5 29  1  0
  6  7  1  0
  8  9  1  0
  8 27  2  0
  9 10  1  0
  9 11  2  0
 11 12  1  0
 12 13  1  0
 12 27  1  0
 13 14  1  0
 13 15  1  0
 13 24  1  0
 15 16  1  0
 15 17  1  0
 15 18  1  0
 18 19  1  0
 18 20  1  0
 18 21  1  0
 21 22  1  0
 21 23  1  0
 21 24  1  0
 24 25  1  0
 24 26  1  0
 27 28  1  0
M  END
$$$$
