
     RDKit          3D

 27 28  0  0  0  0  0  0  0  0999 V2000
  -22.8985   10.5580   31.7496 O   0  0  0  0  0  0  0  0  0  0  0  0
  -22.8289    9.9862   33.0489 C   0  0  0  0  0  0  0  0  0  0  0  0
  -21.8685    9.4680   33.1347 H   0  0  0  0  0  0  0  0  0  0  0  0
  -23.6205    9.2435   33.1969 H   0  0  0  0  0  0  0  0  0  0  0  0
  -22.8587   10.7593   33.8237 H   0  0  0  0  0  0  0  0  0  0  0  0
  -24.0371   11.2518   31.3971 C   0  0  0  0  0  0  0  0  0  0  0  0
  -24.0629   11.7628   30.0916 C   0  0  0  0  0  0  0  0  0  0  0  0
  -25.1915   12.4991   29.7012 C   0  0  0  0  0  0  0  0  0  0  0  0
  -25.4021   13.1369   28.4554 N   0  0  0  0  0  0  0  0  0  0  0  0
  -26.3370   13.5404   28.3212 H   0  0  0  0  0  0  0  0  0  0  0  0
  -24.6220   13.3573   27.3644 C   0  0  0  0  0  0  0  0  0  0  0  0
  -25.1857   13.9877   26.5004 O   0  0  0  0  0  0  0  0  0  0  0  0
  -23.1939   12.9441   27.2820 C   0  0  0  0  0  0  0  0  0  0  0  0
  -22.8906   13.0335   26.2317 H   0  0  0  0  0  0  0  0  0  0  0  0
  -22.5808   13.6428   27.8619 H   0  0  0  0  0  0  0  0  0  0  0  0
  -23.0216   11.5126   27.7198 C   0  0  0  0  0  0  0  0  0  0  0  0
  -23.8512   10.8803   27.3790 H   0  0  0  0  0  0  0  0  0  0  0  0
  -22.1079   11.1157   27.2620 H   0  0  0  0  0  0  0  0  0  0  0  0
  -22.8654   11.4321   29.2263 C   0  0  0  0  0  0  0  0  0  0  0  0
  -22.0281   12.0664   29.5459 H   0  0  0  0  0  0  0  0  0  0  0  0
  -22.5691   10.3931   29.4212 H   0  0  0  0  0  0  0  0  0  0  0  0
  -26.2522   12.7136   30.5845 C   0  0  0  0  0  0  0  0  0  0  0  0
  -27.0972   13.2720   30.2733 H   0  0  0  0  0  0  0  0  0  0  0  0
  -26.2056   12.1937   31.8711 C   0  0  0  0  0  0  0  0  0  0  0  0
  -27.0127   12.3553   32.5385 H   0  0  0  0  0  0  0  0  0  0  0  0
  -25.0991   11.4596   32.2825 C   0  0  0  0  0  0  0  0  0  0  0  0
  -25.0712   11.0665   33.2639 H   0  0  0  0  0  0  0  0  0  0  0  0
  1  2  1  0
  1  6  1  0
  2  3  1  0
  2  4  1  0
  2  5  1  0
  6  7  1  0
  6 26  2  0
  7  8  2  0
  7 19  1  0
  8  9  1  0
  8 22  1  0
  9 10  1  0
  9 11  1  0
 11 12  2  0
 11 13  1  0
 13 14  1  0
 13 15  1  0
 13 16  1  0
 16 17  1  0
 16 18  1  0
 16 19  1  0
 19 20  1  0
 19 21  1  0
 22 23  1  0
 22 24  2  0
 24 25  1  0
 24 26  1  0
 26 27  1  0
M  END
$$$$
