
     RDKit          3D

 27 27  0  0  0  0  0  0  0  0999 V2000
  -17.8944   14.4297   24.5149 S   0  0  0  0  0  0  0  0  0  0  0  0
  -18.6462   15.0529   23.4478 O   0  0  0  0  0  0  0  0  0  0  0  0
  -16.9431   15.1699   25.3147 O   0  0  0  0  0  0  0  0  0  0  0  0
  -17.0637   13.1274   23.8386 N   0  0  0  0  0  0  0  0  0  0  0  0
  -16.1551   13.4030   23.4586 H   0  0  0  0  0  0  0  0  0  0  0  0
  -17.6426   12.5991   23.1810 H   0  0  0  0  0  0  0  0  0  0  0  0
  -19.0164   13.6111   25.5912 C   0  0  0  0  0  0  0  0  0  0  0  0
  -19.2836   12.2474   25.4384 C   0  0  0  0  0  0  0  0  0  0  0  0
  -18.7782   11.6962   24.6834 H   0  0  0  0  0  0  0  0  0  0  0  0
  -20.2093   11.6102   26.2566 C   0  0  0  0  0  0  0  0  0  0  0  0
  -20.4034   10.5755   26.1240 H   0  0  0  0  0  0  0  0  0  0  0  0
  -20.8884   12.3268   27.2401 C   0  0  0  0  0  0  0  0  0  0  0  0
  -21.9410   11.6541   28.0774 C   0  0  0  0  0  0  0  0  0  0  0  0
  -21.5513   11.4114   29.0738 H   0  0  0  0  0  0  0  0  0  0  0  0
  -22.2598   10.7092   27.6205 H   0  0  0  0  0  0  0  0  0  0  0  0
  -23.0974   12.5116   28.2234 N   0  0  0  0  0  0  0  0  0  0  0  0
  -23.2182   12.9839   29.1028 H   0  0  0  0  0  0  0  0  0  0  0  0
  -23.9805   12.6855   27.2498 C   0  0  0  0  0  0  0  0  0  0  0  0
  -23.8700   12.1314   26.1663 O   0  0  0  0  0  0  0  0  0  0  0  0
  -25.1121   13.6191   27.5722 C   0  0  0  0  0  0  0  0  0  0  0  0
  -25.5916   13.3183   28.5082 H   0  0  0  0  0  0  0  0  0  0  0  0
  -24.7293   14.6388   27.6717 H   0  0  0  0  0  0  0  0  0  0  0  0
  -25.8544   13.5899   26.7700 H   0  0  0  0  0  0  0  0  0  0  0  0
  -20.6355   13.6879   27.3915 C   0  0  0  0  0  0  0  0  0  0  0  0
  -21.1576   14.2456   28.1282 H   0  0  0  0  0  0  0  0  0  0  0  0
  -19.7095   14.3252   26.5717 C   0  0  0  0  0  0  0  0  0  0  0  0
  -19.5322   15.3663   26.6859 H   0  0  0  0  0  0  0  0  0  0  0  0
  1  2  2  0
  1  3  2  0
  1  4  1  0
  1  7  1  0
  4  5  1  0
  4  6  1  0
  7  8  1  0
  7 26  2  0
  8  9  1  0
  8 10  2  0
 10 11  1  0
 10 12  1  0
 12 13  1  0
 12 24  2  0
 13 14  1  0
 13 15  1  0
 13 16  1  0
 16 17  1  0
 16 18  1  0
 18 19  2  0
 18 20  1  0
 20 21  1  0
 20 22  1  0
 20 23  1  0
 24 25  1  0
 24 26  1  0
 26 27  1  0
M  END
$$$$
