
     RDKit          3D

 25 26  0  0  0  0  0  0  0  0999 V2000
  -16.5366   15.3940   28.0161 O   0  0  0  0  0  0  0  0  0  0  0  0
  -16.3552   16.1071   27.0315 C   0  0  0  0  0  0  0  0  0  0  0  0
  -16.9516   15.7702   25.8408 N   0  0  0  0  0  0  0  0  0  0  0  0
  -16.7439   16.4240   25.0730 H   0  0  0  0  0  0  0  0  0  0  0  0
  -17.7679   14.6837   25.5820 C   0  0  0  0  0  0  0  0  0  0  0  0
  -18.1758   13.8483   26.5589 C   0  0  0  0  0  0  0  0  0  0  0  0
  -17.9919   13.8330   27.5999 H   0  0  0  0  0  0  0  0  0  0  0  0
  -18.9456   12.9272   25.9282 N   0  0  0  0  0  0  0  0  0  0  0  0
  -19.6326   11.8021   26.5079 C   0  0  0  0  0  0  0  0  0  0  0  0
  -19.4326   11.7665   27.5814 H   0  0  0  0  0  0  0  0  0  0  0  0
  -19.2671   10.8900   26.0295 H   0  0  0  0  0  0  0  0  0  0  0  0
  -20.7043   11.9245   26.3321 H   0  0  0  0  0  0  0  0  0  0  0  0
  -19.0342   13.1557   24.5907 N   0  0  0  0  0  0  0  0  0  0  0  0
  -18.3143   14.2297   24.3822 C   0  0  0  0  0  0  0  0  0  0  0  0
  -18.1812   14.6714   23.4287 H   0  0  0  0  0  0  0  0  0  0  0  0
  -15.5440   17.3077   27.0169 C   0  0  0  0  0  0  0  0  0  0  0  0
  -14.7084   17.6001   27.9821 N   0  0  0  0  0  0  0  0  0  0  0  0
  -14.1295   18.7546   27.6648 O   0  0  0  0  0  0  0  0  0  0  0  0
  -14.5930   19.2062   26.4950 C   0  0  0  0  0  0  0  0  0  0  0  0
  -14.0473   20.4812   26.0036 C   0  0  0  0  0  0  0  0  0  0  0  0
  -14.4995   20.7602   25.0471 H   0  0  0  0  0  0  0  0  0  0  0  0
  -12.9653   20.4045   25.8593 H   0  0  0  0  0  0  0  0  0  0  0  0
  -14.2429   21.2847   26.7196 H   0  0  0  0  0  0  0  0  0  0  0  0
  -15.4922   18.3173   26.0540 C   0  0  0  0  0  0  0  0  0  0  0  0
  -16.0515   18.3665   25.1560 H   0  0  0  0  0  0  0  0  0  0  0  0
  1  2  2  0
  2  3  1  0
  2 16  1  0
  3  4  1  0
  3  5  1  0
  5  6  2  0
  5 14  1  0
  6  7  1  0
  6  8  1  0
  8  9  1  0
  8 13  1  0
  9 10  1  0
  9 11  1  0
  9 12  1  0
 13 14  2  0
 14 15  1  0
 16 17  2  0
 16 24  1  0
 17 18  1  0
 18 19  1  0
 19 20  1  0
 19 24  2  0
 20 21  1  0
 20 22  1  0
 20 23  1  0
 24 25  1  0
M  END
$$$$
