
     RDKit          3D

 24 24  0  0  0  0  0  0  0  0999 V2000
  -24.5438   11.7345   26.5078 O   0  0  0  0  0  0  0  0  0  0  0  0
  -25.3114   11.2506   26.1541 H   0  0  0  0  0  0  0  0  0  0  0  0
  -25.0318   12.6125   27.5154 C   0  0  0  0  0  0  0  0  0  0  0  0
  -25.7091   13.3352   27.0503 H   0  0  0  0  0  0  0  0  0  0  0  0
  -25.5995   12.0116   28.2326 H   0  0  0  0  0  0  0  0  0  0  0  0
  -23.8753   13.3146   28.2387 C   0  0  0  0  0  0  0  0  0  0  0  0
  -24.2319   13.8386   29.1333 H   0  0  0  0  0  0  0  0  0  0  0  0
  -23.4832   14.1003   27.5806 H   0  0  0  0  0  0  0  0  0  0  0  0
  -22.7736   12.3801   28.5589 N   0  0  0  0  0  0  0  0  0  0  0  0
  -23.0122   11.5038   29.7054 C   0  0  0  0  0  0  0  0  0  0  0  0
  -23.9221   11.7833   30.2499 H   0  0  0  0  0  0  0  0  0  0  0  0
  -22.1839   11.5646   30.4197 H   0  0  0  0  0  0  0  0  0  0  0  0
  -23.1351   10.4663   29.3764 H   0  0  0  0  0  0  0  0  0  0  0  0
  -21.6247   12.3890   27.8059 C   0  0  0  0  0  0  0  0  0  0  0  0
  -20.9376   13.5402   27.8430 N   0  0  0  0  0  0  0  0  0  0  0  0
  -21.3480   14.2892   28.4115 H   0  0  0  0  0  0  0  0  0  0  0  0
  -19.7614   13.7297   27.1737 C   0  0  0  0  0  0  0  0  0  0  0  0
  -19.3148   14.6868   27.2871 H   0  0  0  0  0  0  0  0  0  0  0  0
  -19.2436   12.7031   26.4190 C   0  0  0  0  0  0  0  0  0  0  0  0
  -18.3316   12.8272   25.8917 H   0  0  0  0  0  0  0  0  0  0  0  0
  -19.9307   11.4789   26.3394 C   0  0  0  0  0  0  0  0  0  0  0  0
  -19.5395   10.6853   25.7491 H   0  0  0  0  0  0  0  0  0  0  0  0
  -21.1129   11.3209   27.0228 C   0  0  0  0  0  0  0  0  0  0  0  0
  -21.6477   10.4113   26.9559 H   0  0  0  0  0  0  0  0  0  0  0  0
  1  2  1  0
  1  3  1  0
  3  4  1  0
  3  5  1  0
  3  6  1  0
  6  7  1  0
  6  8  1  0
  6  9  1  0
  9 10  1  0
  9 14  1  0
 10 11  1  0
 10 12  1  0
 10 13  1  0
 14 15  1  0
 14 23  2  0
 15 16  1  0
 15 17  2  0
 17 18  1  0
 17 19  1  0
 19 20  1  0
 19 21  2  0
 21 22  1  0
 21 23  1  0
 23 24  1  0
M  END
$$$$
