
     RDKit          3D

 16 16  0  0  0  0  0  0  0  0999 V2000
  -26.1313   15.2389   28.2841 Br  0  0  0  0  0  0  0  0  0  0  0  0
  -24.7984   14.0029   27.8578 C   0  0  0  0  0  0  0  0  0  0  0  0
  -23.6742   13.7224   28.5491 C   0  0  0  0  0  0  0  0  0  0  0  0
  -23.2904   14.1057   29.4581 H   0  0  0  0  0  0  0  0  0  0  0  0
  -23.0378   12.7624   27.8392 N   0  0  0  0  0  0  0  0  0  0  0  0
  -21.7751   12.1169   28.1399 C   0  0  0  0  0  0  0  0  0  0  0  0
  -21.6878   12.0786   29.2313 H   0  0  0  0  0  0  0  0  0  0  0  0
  -21.8350   11.0918   27.7577 H   0  0  0  0  0  0  0  0  0  0  0  0
  -20.5983   12.8655   27.5343 C   0  0  0  0  0  0  0  0  0  0  0  0
  -19.6789   12.2919   27.6822 H   0  0  0  0  0  0  0  0  0  0  0  0
  -20.4716   13.8584   27.9784 H   0  0  0  0  0  0  0  0  0  0  0  0
  -20.7904   13.0124   26.1306 O   0  0  0  0  0  0  0  0  0  0  0  0
  -20.9784   12.1269   25.7725 H   0  0  0  0  0  0  0  0  0  0  0  0
  -23.7280   12.4189   26.7173 N   0  0  0  0  0  0  0  0  0  0  0  0
  -24.7922   13.1787   26.7379 C   0  0  0  0  0  0  0  0  0  0  0  0
  -25.5419   13.1542   25.9897 H   0  0  0  0  0  0  0  0  0  0  0  0
  1  2  1  0
  2  3  2  0
  2 15  1  0
  3  4  1  0
  3  5  1  0
  5  6  1  0
  5 14  1  0
  6  7  1  0
  6  8  1  0
  6  9  1  0
  9 10  1  0
  9 11  1  0
  9 12  1  0
 12 13  1  0
 14 15  2  0
 15 16  1  0
M  END
$$$$
