
     RDKit          3D

 23 23  0  0  0  0  0  0  0  0999 V2000
  -19.5775   12.3338   24.4750 Cl  0  0  0  0  0  0  0  0  0  0  0  0
  -19.2612   13.7834   25.3489 C   0  0  0  0  0  0  0  0  0  0  0  0
  -19.5406   13.9424   26.7157 C   0  0  0  0  0  0  0  0  0  0  0  0
  -20.1346   12.9160   27.5978 C   0  0  0  0  0  0  0  0  0  0  0  0
  -19.8740   12.6656   28.7651 O   0  0  0  0  0  0  0  0  0  0  0  0
  -21.1032   12.1194   27.0801 N   0  0  0  0  0  0  0  0  0  0  0  0
  -21.5172   11.3988   27.6838 H   0  0  0  0  0  0  0  0  0  0  0  0
  -21.3945   12.2423   26.1019 H   0  0  0  0  0  0  0  0  0  0  0  0
  -19.2463   15.1320   27.2982 N   0  0  0  0  0  0  0  0  0  0  0  0
  -18.7111   16.1169   26.5934 C   0  0  0  0  0  0  0  0  0  0  0  0
  -18.4037   17.4187   27.2891 C   0  0  0  0  0  0  0  0  0  0  0  0
  -18.7287   17.3354   28.3339 H   0  0  0  0  0  0  0  0  0  0  0  0
  -16.9017   17.6970   27.2880 C   0  0  0  0  0  0  0  0  0  0  0  0
  -16.5114   17.8173   26.2704 H   0  0  0  0  0  0  0  0  0  0  0  0
  -16.3503   16.8749   27.7587 H   0  0  0  0  0  0  0  0  0  0  0  0
  -16.6772   18.6137   27.8436 H   0  0  0  0  0  0  0  0  0  0  0  0
  -19.1772   18.5728   26.6514 C   0  0  0  0  0  0  0  0  0  0  0  0
  -18.8825   18.7309   25.6080 H   0  0  0  0  0  0  0  0  0  0  0  0
  -18.9972   19.5066   27.1956 H   0  0  0  0  0  0  0  0  0  0  0  0
  -20.2548   18.3775   26.6659 H   0  0  0  0  0  0  0  0  0  0  0  0
  -18.4379   15.9878   25.2917 N   0  0  0  0  0  0  0  0  0  0  0  0
  -18.6994   14.8554   24.6656 C   0  0  0  0  0  0  0  0  0  0  0  0
  -18.4749   14.7735   23.6319 H   0  0  0  0  0  0  0  0  0  0  0  0
  1  2  1  0
  2  3  1  0
  2 22  2  0
  3  4  1  0
  3  9  2  0
  4  5  2  0
  4  6  1  0
  6  7  1  0
  6  8  1  0
  9 10  1  0
 10 11  1  0
 10 21  2  0
 11 12  1  0
 11 13  1  0
 11 17  1  0
 13 14  1  0
 13 15  1  0
 13 16  1  0
 17 18  1  0
 17 19  1  0
 17 20  1  0
 21 22  1  0
 22 23  1  0
M  END
$$$$
