
     RDKit          3D

 29 30  0  0  0  0  0  0  0  0999 V2000
  -26.3116   12.2320   30.8663 O   0  0  0  0  0  0  0  0  0  0  0  0
  -26.0323   12.8354   29.8434 C   0  0  0  0  0  0  0  0  0  0  0  0
  -27.0104   13.3139   29.0714 N   0  0  0  0  0  0  0  0  0  0  0  0
  -27.9560   13.1535   29.4355 H   0  0  0  0  0  0  0  0  0  0  0  0
  -26.8146   14.1914   28.5836 H   0  0  0  0  0  0  0  0  0  0  0  0
  -24.7503   13.0767   29.4242 N   0  0  0  0  0  0  0  0  0  0  0  0
  -23.6389   12.7877   30.3351 C   0  0  0  0  0  0  0  0  0  0  0  0
  -23.9939   12.3577   31.2775 H   0  0  0  0  0  0  0  0  0  0  0  0
  -23.1621   13.7468   30.5709 H   0  0  0  0  0  0  0  0  0  0  0  0
  -22.6274   11.8452   29.6833 C   0  0  0  0  0  0  0  0  0  0  0  0
  -23.0946   10.8723   29.4889 H   0  0  0  0  0  0  0  0  0  0  0  0
  -21.7895   11.6711   30.3640 H   0  0  0  0  0  0  0  0  0  0  0  0
  -22.1762   12.3582   28.3809 N   0  0  0  0  0  0  0  0  0  0  0  0
  -20.8171   12.4731   28.1057 C   0  0  0  0  0  0  0  0  0  0  0  0
  -20.0564   12.4189   29.0725 O   0  0  0  0  0  0  0  0  0  0  0  0
  -20.3324   12.6527   26.7552 C   0  0  0  0  0  0  0  0  0  0  0  0
  -20.3299   11.6122   25.8684 O   0  0  0  0  0  0  0  0  0  0  0  0
  -19.7764   12.0462   24.7145 C   0  0  0  0  0  0  0  0  0  0  0  0
  -19.6885   11.3929   23.8845 H   0  0  0  0  0  0  0  0  0  0  0  0
  -19.4060   13.3407   24.8471 C   0  0  0  0  0  0  0  0  0  0  0  0
  -18.9444   13.9373   24.1039 H   0  0  0  0  0  0  0  0  0  0  0  0
  -19.7464   13.7331   26.1637 C   0  0  0  0  0  0  0  0  0  0  0  0
  -19.5881   14.6753   26.6233 H   0  0  0  0  0  0  0  0  0  0  0  0
  -23.2631   12.7052   27.4549 C   0  0  0  0  0  0  0  0  0  0  0  0
  -22.8912   13.2373   26.5775 H   0  0  0  0  0  0  0  0  0  0  0  0
  -23.7128   11.7614   27.1257 H   0  0  0  0  0  0  0  0  0  0  0  0
  -24.3303   13.5975   28.1156 C   0  0  0  0  0  0  0  0  0  0  0  0
  -25.1711   13.6961   27.4255 H   0  0  0  0  0  0  0  0  0  0  0  0
  -23.9206   14.5990   28.2941 H   0  0  0  0  0  0  0  0  0  0  0  0
  1  2  2  0
  2  3  1  0
  2  6  1  0
  3  4  1  0
  3  5  1  0
  6  7  1  0
  6 27  1  0
  7  8  1  0
  7  9  1  0
  7 10  1  0
 10 11  1  0
 10 12  1  0
 10 13  1  0
 13 14  1  0
 13 24  1  0
 14 15  2  0
 14 16  1  0
 16 17  1  0
 16 22  2  0
 17 18  1  0
 18 19  1  0
 18 20  2  0
 20 21  1  0
 20 22  1  0
 22 23  1  0
 24 25  1  0
 24 26  1  0
 24 27  1  0
 27 28  1  0
 27 29  1  0
M  END
$$$$
