
     RDKit          3D

 39 40  0  0  0  0  0  0  0  0999 V2000
  -21.9625   11.8934   29.9407 O   0  0  0  0  0  0  0  0  0  0  0  0
  -22.8688   12.0591   29.1304 C   0  0  0  0  0  0  0  0  0  0  0  0
  -22.7518   11.5053   27.7112 C   0  0  0  0  0  0  0  0  0  0  0  0
  -23.3601   10.5940   27.6686 H   0  0  0  0  0  0  0  0  0  0  0  0
  -23.2129   12.1979   26.9965 H   0  0  0  0  0  0  0  0  0  0  0  0
  -21.4379   11.1594   27.3057 O   0  0  0  0  0  0  0  0  0  0  0  0
  -20.5775   12.1581   26.9267 C   0  0  0  0  0  0  0  0  0  0  0  0
  -20.5937   13.4694   27.4002 C   0  0  0  0  0  0  0  0  0  0  0  0
  -21.3130   13.7868   28.1090 H   0  0  0  0  0  0  0  0  0  0  0  0
  -19.6496   14.3765   26.9293 C   0  0  0  0  0  0  0  0  0  0  0  0
  -19.6547   15.3734   27.2913 H   0  0  0  0  0  0  0  0  0  0  0  0
  -18.7008   13.9841   25.9847 C   0  0  0  0  0  0  0  0  0  0  0  0
  -17.6636   14.9589   25.5043 C   0  0  0  0  0  0  0  0  0  0  0  0
  -16.7781   14.9061   26.1454 H   0  0  0  0  0  0  0  0  0  0  0  0
  -17.3689   14.7406   24.4734 H   0  0  0  0  0  0  0  0  0  0  0  0
  -18.0517   15.9824   25.5213 H   0  0  0  0  0  0  0  0  0  0  0  0
  -18.7024   12.6712   25.5111 C   0  0  0  0  0  0  0  0  0  0  0  0
  -17.9889   12.3668   24.7899 H   0  0  0  0  0  0  0  0  0  0  0  0
  -19.6425   11.7579   25.9779 C   0  0  0  0  0  0  0  0  0  0  0  0
  -19.6516   10.7632   25.6135 H   0  0  0  0  0  0  0  0  0  0  0  0
  -23.9683   12.7616   29.5081 N   0  0  0  0  0  0  0  0  0  0  0  0
  -24.1404   13.1644   30.9114 C   0  0  0  0  0  0  0  0  0  0  0  0
  -24.9704   12.5672   31.3103 H   0  0  0  0  0  0  0  0  0  0  0  0
  -23.2580   12.9265   31.5128 H   0  0  0  0  0  0  0  0  0  0  0  0
  -24.4568   14.6561   31.0466 C   0  0  0  0  0  0  0  0  0  0  0  0
  -23.6253   15.2780   30.6990 H   0  0  0  0  0  0  0  0  0  0  0  0
  -24.7067   14.9087   32.0812 H   0  0  0  0  0  0  0  0  0  0  0  0
  -25.6655   15.0004   30.1899 N   0  0  0  0  0  0  0  0  0  0  0  0
  -26.4564   14.4331   30.5270 H   0  0  0  0  0  0  0  0  0  0  0  0
  -26.0690   16.4377   30.3454 C   0  0  0  0  0  0  0  0  0  0  0  0
  -26.9713   16.6022   29.7504 H   0  0  0  0  0  0  0  0  0  0  0  0
  -26.2815   16.6170   31.4031 H   0  0  0  0  0  0  0  0  0  0  0  0
  -25.2493   17.0715   29.9976 H   0  0  0  0  0  0  0  0  0  0  0  0
  -25.4238   14.6337   28.7359 C   0  0  0  0  0  0  0  0  0  0  0  0
  -24.6047   15.2657   28.3761 H   0  0  0  0  0  0  0  0  0  0  0  0
  -26.3394   14.8620   28.1818 H   0  0  0  0  0  0  0  0  0  0  0  0
  -25.0695   13.1441   28.6136 C   0  0  0  0  0  0  0  0  0  0  0  0
  -24.8328   12.9357   27.5691 H   0  0  0  0  0  0  0  0  0  0  0  0
  -25.9337   12.5269   28.8887 H   0  0  0  0  0  0  0  0  0  0  0  0
  1  2  2  0
  2  3  1  0
  2 21  1  0
  3  4  1  0
  3  5  1  0
  3  6  1  0
  6  7  1  0
  7  8  1  0
  7 19  2  0
  8  9  1  0
  8 10  2  0
 10 11  1  0
 10 12  1  0
 12 13  1  0
 12 17  2  0
 13 14  1  0
 13 15  1  0
 13 16  1  0
 17 18  1  0
 17 19  1  0
 19 20  1  0
 21 22  1  0
 21 37  1  0
 22 23  1  0
 22 24  1  0
 22 25  1  0
 25 26  1  0
 25 27  1  0
 25 28  1  0
 28 29  1  0
 28 30  1  0
 28 34  1  0
 30 31  1  0
 30 32  1  0
 30 33  1  0
 34 35  1  0
 34 36  1  0
 34 37  1  0
 37 38  1  0
 37 39  1  0
M  END
$$$$
