
     RDKit          3D

 26 26  0  0  0  0  0  0  0  0999 V2000
  -16.7748   16.5962   27.2341 S   0  0  0  0  0  0  0  0  0  0  0  0
  -16.3014   15.8867   28.4026 O   0  0  0  0  0  0  0  0  0  0  0  0
  -15.8801   16.9767   26.1618 O   0  0  0  0  0  0  0  0  0  0  0  0
  -17.5666   17.9994   27.7260 N   0  0  0  0  0  0  0  0  0  0  0  0
  -17.4711   18.2193   28.7206 H   0  0  0  0  0  0  0  0  0  0  0  0
  -17.6667   19.1437   26.8003 C   0  0  0  0  0  0  0  0  0  0  0  0
  -16.6503   19.4894   26.5817 H   0  0  0  0  0  0  0  0  0  0  0  0
  -18.1386   18.8459   25.8575 H   0  0  0  0  0  0  0  0  0  0  0  0
  -18.4521   20.2855   27.4500 C   0  0  0  0  0  0  0  0  0  0  0  0
  -17.9337   20.6474   28.3474 H   0  0  0  0  0  0  0  0  0  0  0  0
  -18.4830   21.1372   26.7587 H   0  0  0  0  0  0  0  0  0  0  0  0
  -19.8716   19.9007   27.8055 C   0  0  0  0  0  0  0  0  0  0  0  0
  -20.8863   20.0008   26.8463 C   0  0  0  0  0  0  0  0  0  0  0  0
  -20.6674   20.3585   25.8740 H   0  0  0  0  0  0  0  0  0  0  0  0
  -22.1910   19.6315   27.1646 C   0  0  0  0  0  0  0  0  0  0  0  0
  -22.9673   19.7032   26.4475 H   0  0  0  0  0  0  0  0  0  0  0  0
  -22.4610   19.1632   28.4424 C   0  0  0  0  0  0  0  0  0  0  0  0
  -23.7164   18.8072   28.7503 F   0  0  0  0  0  0  0  0  0  0  0  0
  -21.4735   19.0490   29.4102 C   0  0  0  0  0  0  0  0  0  0  0  0
  -21.7101   18.6817   30.3741 H   0  0  0  0  0  0  0  0  0  0  0  0
  -20.1715   19.4221   29.0849 C   0  0  0  0  0  0  0  0  0  0  0  0
  -19.4049   19.3322   29.8125 H   0  0  0  0  0  0  0  0  0  0  0  0
  -18.1104   15.6633   26.5174 C   0  0  0  0  0  0  0  0  0  0  0  0
  -18.8372   15.4186   27.2940 H   0  0  0  0  0  0  0  0  0  0  0  0
  -17.6925   14.7430   26.1032 H   0  0  0  0  0  0  0  0  0  0  0  0
  -18.5675   16.2529   25.7210 H   0  0  0  0  0  0  0  0  0  0  0  0
  1  2  2  0
  1  3  2  0
  1  4  1  0
  1 23  1  0
  4  5  1  0
  4  6  1  0
  6  7  1  0
  6  8  1  0
  6  9  1  0
  9 10  1  0
  9 11  1  0
  9 12  1  0
 12 13  1  0
 12 21  2  0
 13 14  1  0
 13 15  2  0
 15 16  1  0
 15 17  1  0
 17 18  1  0
 17 19  2  0
 19 20  1  0
 19 21  1  0
 21 22  1  0
 23 24  1  0
 23 25  1  0
 23 26  1  0
M  END
$$$$
