
     RDKit          3D

 31 32  0  0  0  0  0  0  0  0999 V2000
  -21.2874   12.7489   28.6955 O   0  0  0  0  0  0  0  0  0  0  0  0
  -22.0072   13.0419   27.7497 C   0  0  0  0  0  0  0  0  0  0  0  0
  -21.5478   12.7246   26.5064 N   0  0  0  0  0  0  0  0  0  0  0  0
  -22.1463   12.8578   25.6827 H   0  0  0  0  0  0  0  0  0  0  0  0
  -20.2306   12.1595   26.2932 C   0  0  0  0  0  0  0  0  0  0  0  0
  -20.1563   11.8350   25.2488 H   0  0  0  0  0  0  0  0  0  0  0  0
  -20.1209   11.2744   26.9300 H   0  0  0  0  0  0  0  0  0  0  0  0
  -19.2022   13.1863   26.6079 C   0  0  0  0  0  0  0  0  0  0  0  0
  -18.9928   14.3581   25.9627 C   0  0  0  0  0  0  0  0  0  0  0  0
  -19.4808   14.8046   25.1372 H   0  0  0  0  0  0  0  0  0  0  0  0
  -17.9529   14.9477   26.5937 N   0  0  0  0  0  0  0  0  0  0  0  0
  -17.3313   16.2203   26.2935 C   0  0  0  0  0  0  0  0  0  0  0  0
  -16.3920   16.0172   25.7674 H   0  0  0  0  0  0  0  0  0  0  0  0
  -17.9922   16.7569   25.6047 H   0  0  0  0  0  0  0  0  0  0  0  0
  -17.0703   17.0419   27.5429 C   0  0  0  0  0  0  0  0  0  0  0  0
  -16.4132   16.5056   28.2362 H   0  0  0  0  0  0  0  0  0  0  0  0
  -18.0026   17.2639   28.0724 H   0  0  0  0  0  0  0  0  0  0  0  0
  -16.5917   17.9904   27.2812 H   0  0  0  0  0  0  0  0  0  0  0  0
  -17.4954   14.1890   27.6215 N   0  0  0  0  0  0  0  0  0  0  0  0
  -18.2532   13.1267   27.6210 C   0  0  0  0  0  0  0  0  0  0  0  0
  -18.1423   12.3358   28.3192 H   0  0  0  0  0  0  0  0  0  0  0  0
  -23.3347   13.6648   27.9138 C   0  0  0  0  0  0  0  0  0  0  0  0
  -24.3116   13.3987   26.9460 C   0  0  0  0  0  0  0  0  0  0  0  0
  -24.0793   12.7666   26.1248 H   0  0  0  0  0  0  0  0  0  0  0  0
  -25.5403   13.9158   27.0084 N   0  0  0  0  0  0  0  0  0  0  0  0
  -25.8712   14.7116   28.0233 C   0  0  0  0  0  0  0  0  0  0  0  0
  -26.8556   15.1072   28.0450 H   0  0  0  0  0  0  0  0  0  0  0  0
  -24.9640   15.0212   29.0331 C   0  0  0  0  0  0  0  0  0  0  0  0
  -25.2576   15.6525   29.8305 H   0  0  0  0  0  0  0  0  0  0  0  0
  -23.6792   14.4955   28.9876 C   0  0  0  0  0  0  0  0  0  0  0  0
  -22.9870   14.7180   29.7573 H   0  0  0  0  0  0  0  0  0  0  0  0
  1  2  2  0
  2  3  1  0
  2 22  1  0
  3  4  1  0
  3  5  1  0
  5  6  1  0
  5  7  1  0
  5  8  1  0
  8  9  2  0
  8 20  1  0
  9 10  1  0
  9 11  1  0
 11 12  1  0
 11 19  1  0
 12 13  1  0
 12 14  1  0
 12 15  1  0
 15 16  1  0
 15 17  1  0
 15 18  1  0
 19 20  2  0
 20 21  1  0
 22 23  1  0
 22 30  2  0
 23 24  1  0
 23 25  2  0
 25 26  1  0
 26 27  1  0
 26 28  2  0
 28 29  1  0
 28 30  1  0
 30 31  1  0
M  END
$$$$
