
     RDKit          3D

 25 27  0  0  0  0  0  0  0  0999 V2000
  -19.2590   16.9437   27.7413 O   0  0  0  0  0  0  0  0  0  0  0  0
  -18.7388   16.4525   26.7413 C   0  0  0  0  0  0  0  0  0  0  0  0
  -17.9685   17.2499   25.9491 N   0  0  0  0  0  0  0  0  0  0  0  0
  -17.5441   16.7838   25.1304 H   0  0  0  0  0  0  0  0  0  0  0  0
  -17.7201   18.6330   26.1844 C   0  0  0  0  0  0  0  0  0  0  0  0
  -18.6287   19.2305   26.1980 H   0  0  0  0  0  0  0  0  0  0  0  0
  -16.4910   19.2978   25.6263 C   0  0  0  0  0  0  0  0  0  0  0  0
  -15.7755   18.6969   25.0783 H   0  0  0  0  0  0  0  0  0  0  0  0
  -16.5888   20.3146   25.2644 H   0  0  0  0  0  0  0  0  0  0  0  0
  -16.6116   19.0656   27.1036 C   0  0  0  0  0  0  0  0  0  0  0  0
  -16.7949   19.9201   27.7435 H   0  0  0  0  0  0  0  0  0  0  0  0
  -15.9880   18.2998   27.5507 H   0  0  0  0  0  0  0  0  0  0  0  0
  -18.8800   15.0711   26.3436 C   0  0  0  0  0  0  0  0  0  0  0  0
  -19.7682   14.1645   26.8659 C   0  0  0  0  0  0  0  0  0  0  0  0
  -19.5223   13.0037   26.1713 N   0  0  0  0  0  0  0  0  0  0  0  0
  -18.5355   13.1379   25.2458 N   0  0  0  0  0  0  0  0  0  0  0  0
  -18.1602   14.3888   25.3638 C   0  0  0  0  0  0  0  0  0  0  0  0
  -17.3921   14.8216   24.7720 H   0  0  0  0  0  0  0  0  0  0  0  0
  -20.2454   11.8324   26.4292 C   0  0  0  0  0  0  0  0  0  0  0  0
  -19.9840   10.9893   25.8442 H   0  0  0  0  0  0  0  0  0  0  0  0
  -21.2007   11.9153   27.4054 C   0  0  0  0  0  0  0  0  0  0  0  0
  -21.7884   11.0724   27.6598 H   0  0  0  0  0  0  0  0  0  0  0  0
  -21.4279   13.1448   28.1076 C   0  0  0  0  0  0  0  0  0  0  0  0
  -22.1732   13.1844   28.8600 H   0  0  0  0  0  0  0  0  0  0  0  0
  -20.7511   14.2336   27.8623 N   0  0  0  0  0  0  0  0  0  0  0  0
  1  2  2  0
  2  3  1  0
  2 13  1  0
  3  4  1  0
  3  5  1  0
  5  6  1  0
  5  7  1  0
  5 10  1  0
  7  8  1  0
  7  9  1  0
  7 10  1  0
 10 11  1  0
 10 12  1  0
 13 14  2  0
 13 17  1  0
 14 15  1  0
 14 25  1  0
 15 16  1  0
 15 19  1  0
 16 17  2  0
 17 18  1  0
 19 20  1  0
 19 21  2  0
 21 22  1  0
 21 23  1  0
 23 24  1  0
 23 25  2  0
M  END
$$$$
