
     RDKit          3D

 16 17  0  0  0  0  0  0  0  0999 V2000
  -19.1895   18.8658   26.2344 Br  0  0  0  0  0  0  0  0  0  0  0  0
  -17.8181   17.6434   26.7003 C   0  0  0  0  0  0  0  0  0  0  0  0
  -16.4441   18.0028   26.7650 C   0  0  0  0  0  0  0  0  0  0  0  0
  -15.5196   16.9932   27.1264 C   0  0  0  0  0  0  0  0  0  0  0  0
  -15.9216   15.7198   27.4052 N   0  0  0  0  0  0  0  0  0  0  0  0
  -17.1838   15.4069   27.3415 C   0  0  0  0  0  0  0  0  0  0  0  0
  -17.4674   14.4073   27.5647 H   0  0  0  0  0  0  0  0  0  0  0  0
  -18.1694   16.3487   26.9893 C   0  0  0  0  0  0  0  0  0  0  0  0
  -19.1839   16.0442   26.9516 H   0  0  0  0  0  0  0  0  0  0  0  0
  -14.1819   17.2472   27.2136 N   0  0  0  0  0  0  0  0  0  0  0  0
  -13.7286   18.4435   26.9611 C   0  0  0  0  0  0  0  0  0  0  0  0
  -12.6823   18.6115   27.0368 H   0  0  0  0  0  0  0  0  0  0  0  0
  -14.5821   19.5058   26.5945 C   0  0  0  0  0  0  0  0  0  0  0  0
  -14.1642   20.4601   26.4002 H   0  0  0  0  0  0  0  0  0  0  0  0
  -15.9342   19.2990   26.4938 C   0  0  0  0  0  0  0  0  0  0  0  0
  -16.5770   20.0949   26.2185 H   0  0  0  0  0  0  0  0  0  0  0  0
  1  2  1  0
  2  3  1  0
  2  8  2  0
  3  4  1  0
  3 15  2  0
  4  5  1  0
  4 10  2  0
  5  6  2  0
  6  7  1  0
  6  8  1  0
  8  9  1  0
 10 11  1  0
 11 12  1  0
 11 13  2  0
 13 14  1  0
 13 15  1  0
 15 16  1  0
M  END
$$$$
