
     RDKit          3D

 20 20  0  0  0  0  0  0  0  0999 V2000
  -24.5863   13.1419   27.0663 S   0  0  0  0  0  0  0  0  0  0  0  0
  -25.5877   14.0352   26.5308 O   0  0  0  0  0  0  0  0  0  0  0  0
  -23.3658   12.8381   26.3511 O   0  0  0  0  0  0  0  0  0  0  0  0
  -25.3520   11.6739   27.3858 N   0  0  0  0  0  0  0  0  0  0  0  0
  -26.1547   11.7836   28.0096 H   0  0  0  0  0  0  0  0  0  0  0  0
  -25.5590   11.1497   26.5318 H   0  0  0  0  0  0  0  0  0  0  0  0
  -24.1640   13.6791   28.6888 C   0  0  0  0  0  0  0  0  0  0  0  0
  -24.3204   15.0199   29.0527 C   0  0  0  0  0  0  0  0  0  0  0  0
  -24.6722   15.7326   28.3524 H   0  0  0  0  0  0  0  0  0  0  0  0
  -24.0127   15.4052   30.3488 C   0  0  0  0  0  0  0  0  0  0  0  0
  -24.1613   16.6933   30.6910 F   0  0  0  0  0  0  0  0  0  0  0  0
  -23.5631   14.5077   31.3056 C   0  0  0  0  0  0  0  0  0  0  0  0
  -23.3424   14.8439   32.2860 H   0  0  0  0  0  0  0  0  0  0  0  0
  -23.4150   13.1678   30.9547 C   0  0  0  0  0  0  0  0  0  0  0  0
  -22.9769   12.1608   31.9777 C   0  0  0  0  0  0  0  0  0  0  0  0
  -22.3238   12.6214   32.7264 H   0  0  0  0  0  0  0  0  0  0  0  0
  -22.4108   11.3494   31.5088 H   0  0  0  0  0  0  0  0  0  0  0  0
  -23.8496   11.7366   32.4826 H   0  0  0  0  0  0  0  0  0  0  0  0
  -23.7223   12.7622   29.6527 C   0  0  0  0  0  0  0  0  0  0  0  0
  -23.6263   11.7395   29.3832 H   0  0  0  0  0  0  0  0  0  0  0  0
  1  2  2  0
  1  3  2  0
  1  4  1  0
  1  7  1  0
  4  5  1  0
  4  6  1  0
  7  8  1  0
  7 19  2  0
  8  9  1  0
  8 10  2  0
 10 11  1  0
 10 12  1  0
 12 13  1  0
 12 14  2  0
 14 15  1  0
 14 19  1  0
 15 16  1  0
 15 17  1  0
 15 18  1  0
 19 20  1  0
M  END
$$$$
