
     RDKit          3D

 23 23  0  0  0  0  0  0  0  0999 V2000
  -17.1585   16.3432   27.1232 S   0  0  0  0  0  0  0  0  0  0  0  0
  -16.0702   15.7201   27.8592 O   0  0  0  0  0  0  0  0  0  0  0  0
  -18.3270   16.8496   27.8176 O   0  0  0  0  0  0  0  0  0  0  0  0
  -17.7023   15.1889   25.8912 C   0  0  0  0  0  0  0  0  0  0  0  0
  -16.8457   14.8819   25.2876 H   0  0  0  0  0  0  0  0  0  0  0  0
  -18.4664   15.6593   25.2694 H   0  0  0  0  0  0  0  0  0  0  0  0
  -18.1249   14.3219   26.4023 H   0  0  0  0  0  0  0  0  0  0  0  0
  -16.4876   17.6726   26.1648 C   0  0  0  0  0  0  0  0  0  0  0  0
  -17.1990   18.8557   25.9000 C   0  0  0  0  0  0  0  0  0  0  0  0
  -18.4944   19.0047   26.3890 N   0  0  0  0  0  0  0  0  0  0  0  0
  -18.8673   18.2348   26.9632 H   0  0  0  0  0  0  0  0  0  0  0  0
  -19.3643   20.1273   26.1339 C   0  0  0  0  0  0  0  0  0  0  0  0
  -18.9106   21.0644   26.4738 H   0  0  0  0  0  0  0  0  0  0  0  0
  -20.3024   19.9940   26.6819 H   0  0  0  0  0  0  0  0  0  0  0  0
  -19.6093   20.2041   25.0701 H   0  0  0  0  0  0  0  0  0  0  0  0
  -16.5971   19.8906   25.1719 C   0  0  0  0  0  0  0  0  0  0  0  0
  -17.1148   20.7952   24.9933 H   0  0  0  0  0  0  0  0  0  0  0  0
  -15.3091   19.7353   24.6770 C   0  0  0  0  0  0  0  0  0  0  0  0
  -14.8579   20.5154   24.1191 H   0  0  0  0  0  0  0  0  0  0  0  0
  -14.6091   18.5558   24.9087 C   0  0  0  0  0  0  0  0  0  0  0  0
  -13.6279   18.4364   24.5229 H   0  0  0  0  0  0  0  0  0  0  0  0
  -15.1959   17.5349   25.6504 C   0  0  0  0  0  0  0  0  0  0  0  0
  -14.6547   16.6403   25.8278 H   0  0  0  0  0  0  0  0  0  0  0  0
  1  2  2  0
  1  3  2  0
  1  4  1  0
  1  8  1  0
  4  5  1  0
  4  6  1  0
  4  7  1  0
  8  9  1  0
  8 22  2  0
  9 10  1  0
  9 16  2  0
 10 11  1  0
 10 12  1  0
 12 13  1  0
 12 14  1  0
 12 15  1  0
 16 17  1  0
 16 18  1  0
 18 19  1  0
 18 20  2  0
 20 21  1  0
 20 22  1  0
 22 23  1  0
M  END
$$$$
