
     RDKit          3D

 20 20  0  0  0  0  0  0  0  0999 V2000
  -23.4157   12.0382   27.4436 S   0  0  0  0  0  0  0  0  0  0  0  0
  -22.5686   13.1672   27.1347 O   0  0  0  0  0  0  0  0  0  0  0  0
  -22.8762   10.7217   27.7068 O   0  0  0  0  0  0  0  0  0  0  0  0
  -24.5124   11.8794   26.1727 N   0  0  0  0  0  0  0  0  0  0  0  0
  -25.1800   11.1211   26.3299 H   0  0  0  0  0  0  0  0  0  0  0  0
  -24.9484   12.7706   25.9221 H   0  0  0  0  0  0  0  0  0  0  0  0
  -24.4802   12.4818   28.7738 C   0  0  0  0  0  0  0  0  0  0  0  0
  -25.5602   13.3430   28.5581 C   0  0  0  0  0  0  0  0  0  0  0  0
  -25.7383   13.7570   27.5994 H   0  0  0  0  0  0  0  0  0  0  0  0
  -26.4015   13.6452   29.6181 C   0  0  0  0  0  0  0  0  0  0  0  0
  -27.4337   14.4747   29.4059 F   0  0  0  0  0  0  0  0  0  0  0  0
  -26.2192   13.1173   30.8874 C   0  0  0  0  0  0  0  0  0  0  0  0
  -26.8880   13.3720   31.6689 H   0  0  0  0  0  0  0  0  0  0  0  0
  -25.1522   12.2496   31.1086 C   0  0  0  0  0  0  0  0  0  0  0  0
  -24.9531   11.6221   32.4574 C   0  0  0  0  0  0  0  0  0  0  0  0
  -25.3168   12.2803   33.2535 H   0  0  0  0  0  0  0  0  0  0  0  0
  -23.8910   11.4378   32.6489 H   0  0  0  0  0  0  0  0  0  0  0  0
  -25.4916   10.6715   32.5108 H   0  0  0  0  0  0  0  0  0  0  0  0
  -24.2953   11.9331   30.0504 C   0  0  0  0  0  0  0  0  0  0  0  0
  -23.4891   11.2602   30.2087 H   0  0  0  0  0  0  0  0  0  0  0  0
  1  2  2  0
  1  3  2  0
  1  4  1  0
  1  7  1  0
  4  5  1  0
  4  6  1  0
  7  8  1  0
  7 19  2  0
  8  9  1  0
  8 10  2  0
 10 11  1  0
 10 12  1  0
 12 13  1  0
 12 14  2  0
 14 15  1  0
 14 19  1  0
 15 16  1  0
 15 17  1  0
 15 18  1  0
 19 20  1  0
M  END
$$$$
