
     RDKit          3D

 24 25  0  0  0  0  0  0  0  0999 V2000
  -18.8638   14.3002   23.5533 F   0  0  0  0  0  0  0  0  0  0  0  0
  -18.7065   13.7871   24.7818 C   0  0  0  0  0  0  0  0  0  0  0  0
  -18.0023   14.4787   25.7845 C   0  0  0  0  0  0  0  0  0  0  0  0
  -17.3737   15.7047   25.6072 N   0  0  0  0  0  0  0  0  0  0  0  0
  -17.4963   16.1615   24.7098 H   0  0  0  0  0  0  0  0  0  0  0  0
  -16.5471   16.4313   26.5513 C   0  0  0  0  0  0  0  0  0  0  0  0
  -17.0657   16.7152   27.4681 H   0  0  0  0  0  0  0  0  0  0  0  0
  -15.7294   15.7682   26.8589 H   0  0  0  0  0  0  0  0  0  0  0  0
  -15.9753   17.6684   25.9588 C   0  0  0  0  0  0  0  0  0  0  0  0
  -16.7222   18.7834   25.7895 N   0  0  0  0  0  0  0  0  0  0  0  0
  -17.7309   18.8580   26.0299 H   0  0  0  0  0  0  0  0  0  0  0  0
  -16.0098   19.8025   25.2420 N   0  0  0  0  0  0  0  0  0  0  0  0
  -14.8106   19.3152   25.0718 C   0  0  0  0  0  0  0  0  0  0  0  0
  -14.0091   19.8724   24.6571 H   0  0  0  0  0  0  0  0  0  0  0  0
  -14.7454   17.9955   25.5024 C   0  0  0  0  0  0  0  0  0  0  0  0
  -13.8914   17.3673   25.4766 H   0  0  0  0  0  0  0  0  0  0  0  0
  -17.9085   13.9039   27.0540 C   0  0  0  0  0  0  0  0  0  0  0  0
  -17.4001   14.4165   27.8296 H   0  0  0  0  0  0  0  0  0  0  0  0
  -18.4778   12.6552   27.2960 C   0  0  0  0  0  0  0  0  0  0  0  0
  -18.3991   12.2203   28.2612 H   0  0  0  0  0  0  0  0  0  0  0  0
  -19.1553   11.9720   26.2844 C   0  0  0  0  0  0  0  0  0  0  0  0
  -19.5857   11.0232   26.4823 H   0  0  0  0  0  0  0  0  0  0  0  0
  -19.2749   12.5437   25.0192 C   0  0  0  0  0  0  0  0  0  0  0  0
  -19.7971   12.0416   24.2457 H   0  0  0  0  0  0  0  0  0  0  0  0
  1  2  1  0
  2  3  1  0
  2 23  2  0
  3  4  1  0
  3 17  2  0
  4  5  1  0
  4  6  1  0
  6  7  1  0
  6  8  1  0
  6  9  1  0
  9 10  1  0
  9 15  2  0
 10 11  1  0
 10 12  1  0
 12 13  2  0
 13 14  1  0
 13 15  1  0
 15 16  1  0
 17 18  1  0
 17 19  1  0
 19 20  1  0
 19 21  2  0
 21 22  1  0
 21 23  1  0
 23 24  1  0
M  END
$$$$
