
     RDKit          3D

 23 24  0  0  0  0  0  0  0  0999 V2000
  -23.0947   13.8152   30.2339 O   0  0  0  0  0  0  0  0  0  0  0  0
  -23.8654   14.0446   29.3070 C   0  0  0  0  0  0  0  0  0  0  0  0
  -24.5726   15.2347   29.3580 N   0  0  0  0  0  0  0  0  0  0  0  0
  -25.6176   15.6978   28.4513 C   0  0  0  0  0  0  0  0  0  0  0  0
  -25.2808   15.6966   27.4140 H   0  0  0  0  0  0  0  0  0  0  0  0
  -26.4765   15.0265   28.5548 H   0  0  0  0  0  0  0  0  0  0  0  0
  -25.9441   17.1120   28.9169 C   0  0  0  0  0  0  0  0  0  0  0  0
  -25.2976   17.8327   28.4011 H   0  0  0  0  0  0  0  0  0  0  0  0
  -26.9836   17.3882   28.7255 H   0  0  0  0  0  0  0  0  0  0  0  0
  -25.5963   17.0812   30.3971 C   0  0  0  0  0  0  0  0  0  0  0  0
  -26.4124   16.6119   30.9596 H   0  0  0  0  0  0  0  0  0  0  0  0
  -25.4151   18.0749   30.8158 H   0  0  0  0  0  0  0  0  0  0  0  0
  -24.3620   16.1952   30.4323 C   0  0  0  0  0  0  0  0  0  0  0  0
  -24.2300   15.6985   31.3977 H   0  0  0  0  0  0  0  0  0  0  0  0
  -23.4538   16.7628   30.1979 H   0  0  0  0  0  0  0  0  0  0  0  0
  -24.0883   13.0973   28.2316 C   0  0  0  0  0  0  0  0  0  0  0  0
  -25.2623   12.4317   28.0380 C   0  0  0  0  0  0  0  0  0  0  0  0
  -26.1815   12.4698   28.5633 H   0  0  0  0  0  0  0  0  0  0  0  0
  -25.0646   11.6314   26.9782 N   0  0  0  0  0  0  0  0  0  0  0  0
  -25.7749   10.9894   26.5768 H   0  0  0  0  0  0  0  0  0  0  0  0
  -23.8031   11.7452   26.4777 N   0  0  0  0  0  0  0  0  0  0  0  0
  -23.2209   12.6225   27.2445 C   0  0  0  0  0  0  0  0  0  0  0  0
  -22.2088   12.9140   27.1232 H   0  0  0  0  0  0  0  0  0  0  0  0
  1  2  2  0
  2  3  1  0
  2 16  1  0
  3  4  1  0
  3 13  1  0
  4  5  1  0
  4  6  1  0
  4  7  1  0
  7  8  1  0
  7  9  1  0
  7 10  1  0
 10 11  1  0
 10 12  1  0
 10 13  1  0
 13 14  1  0
 13 15  1  0
 16 17  2  0
 16 22  1  0
 17 18  1  0
 17 19  1  0
 19 20  1  0
 19 21  1  0
 21 22  2  0
 22 23  1  0
M  END
$$$$
