
     RDKit          3D

 30 31  0  0  0  0  0  0  0  0999 V2000
  -18.8277   19.3168   27.2616 N   0  0  0  0  0  0  0  0  0  0  0  0
  -20.0617   19.1208   28.0465 C   0  0  0  0  0  0  0  0  0  0  0  0
  -20.8056   19.8923   27.8293 H   0  0  0  0  0  0  0  0  0  0  0  0
  -20.5498   18.1860   27.7430 H   0  0  0  0  0  0  0  0  0  0  0  0
  -19.7525   19.0344   29.5336 C   0  0  0  0  0  0  0  0  0  0  0  0
  -19.2267   19.9208   29.8983 H   0  0  0  0  0  0  0  0  0  0  0  0
  -19.1198   18.1671   29.7517 H   0  0  0  0  0  0  0  0  0  0  0  0
  -20.6789   18.9269   30.1074 H   0  0  0  0  0  0  0  0  0  0  0  0
  -18.8329   20.5657   26.4737 C   0  0  0  0  0  0  0  0  0  0  0  0
  -18.0496   20.5524   25.7082 H   0  0  0  0  0  0  0  0  0  0  0  0
  -19.7740   20.6599   25.9167 H   0  0  0  0  0  0  0  0  0  0  0  0
  -18.6752   21.7789   27.3797 C   0  0  0  0  0  0  0  0  0  0  0  0
  -17.7290   21.7514   27.9285 H   0  0  0  0  0  0  0  0  0  0  0  0
  -19.4842   21.8288   28.1151 H   0  0  0  0  0  0  0  0  0  0  0  0
  -18.6971   22.6984   26.7867 H   0  0  0  0  0  0  0  0  0  0  0  0
  -17.7213   18.3949   27.2520 C   0  0  0  0  0  0  0  0  0  0  0  0
  -17.9162   16.9658   27.2326 N   0  0  0  0  0  0  0  0  0  0  0  0
  -19.0590   16.2450   27.2163 N   0  0  0  0  0  0  0  0  0  0  0  0
  -18.6196   15.0244   27.2012 C   0  0  0  0  0  0  0  0  0  0  0  0
  -19.2764   14.1894   27.1864 H   0  0  0  0  0  0  0  0  0  0  0  0
  -17.2902   14.8805   27.2059 N   0  0  0  0  0  0  0  0  0  0  0  0
  -16.8471   16.1043   27.2243 C   0  0  0  0  0  0  0  0  0  0  0  0
  -15.5317   16.5361   27.2368 N   0  0  0  0  0  0  0  0  0  0  0  0
  -15.3076   17.8095   27.2542 C   0  0  0  0  0  0  0  0  0  0  0  0
  -13.8874   18.3043   27.2673 C   0  0  0  0  0  0  0  0  0  0  0  0
  -13.8429   19.3956   27.2900 H   0  0  0  0  0  0  0  0  0  0  0  0
  -13.3726   17.9470   26.3709 H   0  0  0  0  0  0  0  0  0  0  0  0
  -13.3769   17.9108   28.1516 H   0  0  0  0  0  0  0  0  0  0  0  0
  -16.4036   18.8139   27.2611 C   0  0  0  0  0  0  0  0  0  0  0  0
  -16.1688   19.8410   27.2852 H   0  0  0  0  0  0  0  0  0  0  0  0
  1  2  1  0
  1  9  1  0
  1 16  1  0
  2  3  1  0
  2  4  1  0
  2  5  1  0
  5  6  1  0
  5  7  1  0
  5  8  1  0
  9 10  1  0
  9 11  1  0
  9 12  1  0
 12 13  1  0
 12 14  1  0
 12 15  1  0
 16 17  1  0
 16 29  2  0
 17 18  1  0
 17 22  1  0
 18 19  2  0
 19 20  1  0
 19 21  1  0
 21 22  2  0
 22 23  1  0
 23 24  2  0
 24 25  1  0
 24 29  1  0
 25 26  1  0
 25 27  1  0
 25 28  1  0
 29 30  1  0
M  END
$$$$
