
     RDKit          3D

 23 24  0  0  0  0  0  0  0  0999 V2000
  -21.4415   11.7742   27.0589 N   0  0  0  0  0  0  0  0  0  0  0  0
  -20.7850   10.9789   27.0799 H   0  0  0  0  0  0  0  0  0  0  0  0
  -21.5171   12.0104   26.0594 H   0  0  0  0  0  0  0  0  0  0  0  0
  -22.7797   11.2806   27.5210 C   0  0  0  0  0  0  0  0  0  0  0  0
  -22.9479   10.3170   27.0313 H   0  0  0  0  0  0  0  0  0  0  0  0
  -22.7080   11.1413   28.6051 H   0  0  0  0  0  0  0  0  0  0  0  0
  -23.8482   12.2470   27.1801 C   0  0  0  0  0  0  0  0  0  0  0  0
  -24.3367   13.1895   27.9971 N   0  0  0  0  0  0  0  0  0  0  0  0
  -25.2929   13.8454   27.3002 C   0  0  0  0  0  0  0  0  0  0  0  0
  -25.3746   13.3191   26.0997 N   0  0  0  0  0  0  0  0  0  0  0  0
  -24.4604   12.3180   26.0329 N   0  0  0  0  0  0  0  0  0  0  0  0
  -25.9950   14.9141   27.9338 C   0  0  0  0  0  0  0  0  0  0  0  0
  -26.7456   15.4275   27.3897 H   0  0  0  0  0  0  0  0  0  0  0  0
  -25.6934   15.2564   29.2208 C   0  0  0  0  0  0  0  0  0  0  0  0
  -26.2070   16.0482   29.7057 H   0  0  0  0  0  0  0  0  0  0  0  0
  -24.6740   14.5419   29.9249 C   0  0  0  0  0  0  0  0  0  0  0  0
  -24.4509   14.8226   30.9246 H   0  0  0  0  0  0  0  0  0  0  0  0
  -23.9993   13.5164   29.3223 C   0  0  0  0  0  0  0  0  0  0  0  0
  -23.2337   12.9382   29.7691 H   0  0  0  0  0  0  0  0  0  0  0  0
  -20.8888   12.9183   27.8211 C   0  0  0  0  0  0  0  0  0  0  0  0
  -20.7707   12.6132   28.8629 H   0  0  0  0  0  0  0  0  0  0  0  0
  -21.5806   13.7587   27.7287 H   0  0  0  0  0  0  0  0  0  0  0  0
  -19.9205   13.1690   27.3817 H   0  0  0  0  0  0  0  0  0  0  0  0
  1  2  1  0
  1  3  1  0
  1  4  1  0
  1 20  1  0
  4  5  1  0
  4  6  1  0
  4  7  1  0
  7  8  1  0
  7 11  2  0
  8  9  1  0
  8 18  1  0
  9 10  2  0
  9 12  1  0
 10 11  1  0
 12 13  1  0
 12 14  2  0
 14 15  1  0
 14 16  1  0
 16 17  1  0
 16 18  2  0
 18 19  1  0
 20 21  1  0
 20 22  1  0
 20 23  1  0
M  END
$$$$
