
     RDKit          3D

 24 25  0  0  0  0  0  0  0  0999 V2000
  -15.7009   17.2429   26.6125 S   0  0  0  0  0  0  0  0  0  0  0  0
  -15.4207   16.2402   25.6039 O   0  0  0  0  0  0  0  0  0  0  0  0
  -15.2146   17.0851   27.9734 O   0  0  0  0  0  0  0  0  0  0  0  0
  -17.4650   17.5053   26.6946 C   0  0  0  0  0  0  0  0  0  0  0  0
  -17.6915   17.9618   27.6622 H   0  0  0  0  0  0  0  0  0  0  0  0
  -17.7383   18.1916   25.8885 H   0  0  0  0  0  0  0  0  0  0  0  0
  -18.1742   16.2038   26.5581 C   0  0  0  0  0  0  0  0  0  0  0  0
  -17.8542   15.2786   25.6018 N   0  0  0  0  0  0  0  0  0  0  0  0
  -17.1393   15.3795   24.8672 H   0  0  0  0  0  0  0  0  0  0  0  0
  -18.6480   14.1945   25.7821 C   0  0  0  0  0  0  0  0  0  0  0  0
  -19.4355   14.5125   26.8692 C   0  0  0  0  0  0  0  0  0  0  0  0
  -19.1152   15.7719   27.3304 N   0  0  0  0  0  0  0  0  0  0  0  0
  -20.3805   13.5816   27.3205 C   0  0  0  0  0  0  0  0  0  0  0  0
  -20.9894   13.8195   28.1529 H   0  0  0  0  0  0  0  0  0  0  0  0
  -20.5008   12.3642   26.6622 C   0  0  0  0  0  0  0  0  0  0  0  0
  -21.2126   11.6532   26.9943 H   0  0  0  0  0  0  0  0  0  0  0  0
  -19.6808   12.0616   25.5502 C   0  0  0  0  0  0  0  0  0  0  0  0
  -19.7887   11.1255   25.0625 H   0  0  0  0  0  0  0  0  0  0  0  0
  -18.7434   12.9758   25.0968 C   0  0  0  0  0  0  0  0  0  0  0  0
  -18.1235   12.7627   24.2644 H   0  0  0  0  0  0  0  0  0  0  0  0
  -15.1001   18.7981   26.0040 C   0  0  0  0  0  0  0  0  0  0  0  0
  -15.5369   18.9840   25.0213 H   0  0  0  0  0  0  0  0  0  0  0  0
  -14.0127   18.7365   25.9252 H   0  0  0  0  0  0  0  0  0  0  0  0
  -15.3795   19.5852   26.7077 H   0  0  0  0  0  0  0  0  0  0  0  0
  1  2  2  0
  1  3  2  0
  1  4  1  0
  1 21  1  0
  4  5  1  0
  4  6  1  0
  4  7  1  0
  7  8  1  0
  7 12  2  0
  8  9  1  0
  8 10  1  0
 10 11  1  0
 10 19  2  0
 11 12  1  0
 11 13  2  0
 13 14  1  0
 13 15  1  0
 15 16  1  0
 15 17  2  0
 17 18  1  0
 17 19  1  0
 19 20  1  0
 21 22  1  0
 21 23  1  0
 21 24  1  0
M  END
$$$$
