
     RDKit          3D

 24 25  0  0  0  0  0  0  0  0999 V2000
  -18.9396   12.5684   27.3535 S   0  0  0  0  0  0  0  0  0  0  0  0
  -17.7191   11.9513   26.8733 O   0  0  0  0  0  0  0  0  0  0  0  0
  -19.3044   12.5001   28.7591 O   0  0  0  0  0  0  0  0  0  0  0  0
  -20.3173   11.9431   26.4054 C   0  0  0  0  0  0  0  0  0  0  0  0
  -20.2271   12.3308   25.3870 H   0  0  0  0  0  0  0  0  0  0  0  0
  -20.2466   10.8520   26.3937 H   0  0  0  0  0  0  0  0  0  0  0  0
  -21.5963   12.3937   27.0191 C   0  0  0  0  0  0  0  0  0  0  0  0
  -21.7198   12.6893   28.3496 N   0  0  0  0  0  0  0  0  0  0  0  0
  -20.9851   12.6047   29.0664 H   0  0  0  0  0  0  0  0  0  0  0  0
  -22.9883   13.1138   28.5708 C   0  0  0  0  0  0  0  0  0  0  0  0
  -23.5976   13.0597   27.3344 C   0  0  0  0  0  0  0  0  0  0  0  0
  -22.7028   12.6073   26.3878 N   0  0  0  0  0  0  0  0  0  0  0  0
  -24.9403   13.4435   27.2201 C   0  0  0  0  0  0  0  0  0  0  0  0
  -25.4148   13.4029   26.2748 H   0  0  0  0  0  0  0  0  0  0  0  0
  -25.6231   13.8673   28.3532 C   0  0  0  0  0  0  0  0  0  0  0  0
  -26.6389   14.1590   28.2786 H   0  0  0  0  0  0  0  0  0  0  0  0
  -24.9755   13.9146   29.6097 C   0  0  0  0  0  0  0  0  0  0  0  0
  -25.5154   14.2422   30.4623 H   0  0  0  0  0  0  0  0  0  0  0  0
  -23.6479   13.5371   29.7326 C   0  0  0  0  0  0  0  0  0  0  0  0
  -23.1508   13.5666   30.6678 H   0  0  0  0  0  0  0  0  0  0  0  0
  -18.8912   14.2818   26.8933 C   0  0  0  0  0  0  0  0  0  0  0  0
  -18.7195   14.3527   25.8179 H   0  0  0  0  0  0  0  0  0  0  0  0
  -18.0718   14.7577   27.4359 H   0  0  0  0  0  0  0  0  0  0  0  0
  -19.8403   14.7484   27.1660 H   0  0  0  0  0  0  0  0  0  0  0  0
  1  2  2  0
  1  3  2  0
  1  4  1  0
  1 21  1  0
  4  5  1  0
  4  6  1  0
  4  7  1  0
  7  8  1  0
  7 12  2  0
  8  9  1  0
  8 10  1  0
 10 11  1  0
 10 19  2  0
 11 12  1  0
 11 13  2  0
 13 14  1  0
 13 15  1  0
 15 16  1  0
 15 17  2  0
 17 18  1  0
 17 19  1  0
 19 20  1  0
 21 22  1  0
 21 23  1  0
 21 24  1  0
M  END
$$$$
