
     RDKit          3D

 23 24  0  0  0  0  0  0  0  0999 V2000
  -15.6776   19.1582   25.5013 N   0  0  0  0  0  0  0  0  0  0  0  0
  -16.5158   18.8919   24.9624 H   0  0  0  0  0  0  0  0  0  0  0  0
  -15.5691   20.1651   25.3145 H   0  0  0  0  0  0  0  0  0  0  0  0
  -15.9918   18.9882   26.9575 C   0  0  0  0  0  0  0  0  0  0  0  0
  -15.1624   19.4341   27.5143 H   0  0  0  0  0  0  0  0  0  0  0  0
  -16.9140   19.5473   27.1492 H   0  0  0  0  0  0  0  0  0  0  0  0
  -16.1579   17.5577   27.3009 C   0  0  0  0  0  0  0  0  0  0  0  0
  -17.1540   16.7660   26.8820 N   0  0  0  0  0  0  0  0  0  0  0  0
  -16.9317   15.5471   27.4253 C   0  0  0  0  0  0  0  0  0  0  0  0
  -15.8339   15.6006   28.1444 N   0  0  0  0  0  0  0  0  0  0  0  0
  -15.3534   16.8670   28.0569 N   0  0  0  0  0  0  0  0  0  0  0  0
  -17.8515   14.4920   27.1478 C   0  0  0  0  0  0  0  0  0  0  0  0
  -17.6796   13.5372   27.5744 H   0  0  0  0  0  0  0  0  0  0  0  0
  -18.9308   14.7253   26.3446 C   0  0  0  0  0  0  0  0  0  0  0  0
  -19.6239   13.9512   26.1295 H   0  0  0  0  0  0  0  0  0  0  0  0
  -19.1313   16.0263   25.7855 C   0  0  0  0  0  0  0  0  0  0  0  0
  -19.9750   16.1898   25.1614 H   0  0  0  0  0  0  0  0  0  0  0  0
  -18.2532   17.0408   26.0496 C   0  0  0  0  0  0  0  0  0  0  0  0
  -18.3263   18.0291   25.6778 H   0  0  0  0  0  0  0  0  0  0  0  0
  -14.4941   18.4107   25.0156 C   0  0  0  0  0  0  0  0  0  0  0  0
  -14.6687   17.3453   25.1791 H   0  0  0  0  0  0  0  0  0  0  0  0
  -13.6178   18.7593   25.5669 H   0  0  0  0  0  0  0  0  0  0  0  0
  -14.3857   18.6235   23.9495 H   0  0  0  0  0  0  0  0  0  0  0  0
  1  2  1  0
  1  3  1  0
  1  4  1  0
  1 20  1  0
  4  5  1  0
  4  6  1  0
  4  7  1  0
  7  8  1  0
  7 11  2  0
  8  9  1  0
  8 18  1  0
  9 10  2  0
  9 12  1  0
 10 11  1  0
 12 13  1  0
 12 14  2  0
 14 15  1  0
 14 16  1  0
 16 17  1  0
 16 18  2  0
 18 19  1  0
 20 21  1  0
 20 22  1  0
 20 23  1  0
M  END
$$$$
