
     RDKit          3D

 23 23  0  0  0  0  0  0  0  0999 V2000
  -23.1129   11.1523   27.6153 Cl  0  0  0  0  0  0  0  0  0  0  0  0
  -23.9515   12.6065   27.9984 C   0  0  0  0  0  0  0  0  0  0  0  0
  -23.9421   13.1953   29.2731 C   0  0  0  0  0  0  0  0  0  0  0  0
  -23.2280   12.6729   30.4570 C   0  0  0  0  0  0  0  0  0  0  0  0
  -22.5297   11.6746   30.5513 O   0  0  0  0  0  0  0  0  0  0  0  0
  -23.3382   13.3641   31.6192 N   0  0  0  0  0  0  0  0  0  0  0  0
  -22.8506   13.0050   32.4490 H   0  0  0  0  0  0  0  0  0  0  0  0
  -23.9090   14.2184   31.6514 H   0  0  0  0  0  0  0  0  0  0  0  0
  -24.6404   14.3442   29.4562 N   0  0  0  0  0  0  0  0  0  0  0  0
  -25.3142   14.8933   28.4573 C   0  0  0  0  0  0  0  0  0  0  0  0
  -26.0739   16.1701   28.7142 C   0  0  0  0  0  0  0  0  0  0  0  0
  -27.1105   16.0258   28.3842 H   0  0  0  0  0  0  0  0  0  0  0  0
  -26.1000   16.4991   30.2057 C   0  0  0  0  0  0  0  0  0  0  0  0
  -25.0930   16.6813   30.5994 H   0  0  0  0  0  0  0  0  0  0  0  0
  -26.5361   15.6747   30.7814 H   0  0  0  0  0  0  0  0  0  0  0  0
  -26.7006   17.3953   30.3941 H   0  0  0  0  0  0  0  0  0  0  0  0
  -25.4846   17.3263   27.9062 C   0  0  0  0  0  0  0  0  0  0  0  0
  -24.4526   17.5441   28.2033 H   0  0  0  0  0  0  0  0  0  0  0  0
  -26.0742   18.2386   28.0497 H   0  0  0  0  0  0  0  0  0  0  0  0
  -25.4798   17.0939   26.8359 H   0  0  0  0  0  0  0  0  0  0  0  0
  -25.3377   14.3498   27.2368 N   0  0  0  0  0  0  0  0  0  0  0  0
  -24.6783   13.2325   26.9926 C   0  0  0  0  0  0  0  0  0  0  0  0
  -24.7099   12.8174   26.0167 H   0  0  0  0  0  0  0  0  0  0  0  0
  1  2  1  0
  2  3  1  0
  2 22  2  0
  3  4  1  0
  3  9  2  0
  4  5  2  0
  4  6  1  0
  6  7  1  0
  6  8  1  0
  9 10  1  0
 10 11  1  0
 10 21  2  0
 11 12  1  0
 11 13  1  0
 11 17  1  0
 13 14  1  0
 13 15  1  0
 13 16  1  0
 17 18  1  0
 17 19  1  0
 17 20  1  0
 21 22  1  0
 22 23  1  0
M  END
$$$$
