
     RDKit          3D

 23 23  0  0  0  0  0  0  0  0999 V2000
  -24.5719   12.3083   29.9308 Cl  0  0  0  0  0  0  0  0  0  0  0  0
  -23.2565   12.4587   28.8299 C   0  0  0  0  0  0  0  0  0  0  0  0
  -23.4043   12.8696   27.4954 C   0  0  0  0  0  0  0  0  0  0  0  0
  -24.6802   13.2296   26.8421 C   0  0  0  0  0  0  0  0  0  0  0  0
  -25.0614   12.9691   25.7106 O   0  0  0  0  0  0  0  0  0  0  0  0
  -25.5784   13.9497   27.5599 N   0  0  0  0  0  0  0  0  0  0  0  0
  -26.4653   14.2101   27.1117 H   0  0  0  0  0  0  0  0  0  0  0  0
  -25.3542   14.2277   28.5238 H   0  0  0  0  0  0  0  0  0  0  0  0
  -22.2932   12.9522   26.7210 N   0  0  0  0  0  0  0  0  0  0  0  0
  -21.1013   12.6509   27.2128 C   0  0  0  0  0  0  0  0  0  0  0  0
  -19.8989   12.7592   26.3096 C   0  0  0  0  0  0  0  0  0  0  0  0
  -20.2456   12.7199   25.2692 H   0  0  0  0  0  0  0  0  0  0  0  0
  -19.1817   14.0925   26.5130 C   0  0  0  0  0  0  0  0  0  0  0  0
  -18.7848   14.1895   27.5305 H   0  0  0  0  0  0  0  0  0  0  0  0
  -19.8628   14.9341   26.3419 H   0  0  0  0  0  0  0  0  0  0  0  0
  -18.3432   14.1916   25.8154 H   0  0  0  0  0  0  0  0  0  0  0  0
  -18.9464   11.5836   26.5277 C   0  0  0  0  0  0  0  0  0  0  0  0
  -18.5389   11.5751   27.5448 H   0  0  0  0  0  0  0  0  0  0  0  0
  -18.1035   11.6339   25.8295 H   0  0  0  0  0  0  0  0  0  0  0  0
  -19.4591   10.6291   26.3677 H   0  0  0  0  0  0  0  0  0  0  0  0
  -20.9377   12.2569   28.4792 N   0  0  0  0  0  0  0  0  0  0  0  0
  -21.9785   12.1566   29.2850 C   0  0  0  0  0  0  0  0  0  0  0  0
  -21.8270   11.8420   30.2869 H   0  0  0  0  0  0  0  0  0  0  0  0
  1  2  1  0
  2  3  1  0
  2 22  2  0
  3  4  1  0
  3  9  2  0
  4  5  2  0
  4  6  1  0
  6  7  1  0
  6  8  1  0
  9 10  1  0
 10 11  1  0
 10 21  2  0
 11 12  1  0
 11 13  1  0
 11 17  1  0
 13 14  1  0
 13 15  1  0
 13 16  1  0
 17 18  1  0
 17 19  1  0
 17 20  1  0
 21 22  1  0
 22 23  1  0
M  END
$$$$
