
     RDKit          3D

 19 19  0  0  0  0  0  0  0  0999 V2000
  -26.0302   14.8732   27.1240 O   0  0  0  0  0  0  0  0  0  0  0  0
  -25.3931   14.4403   28.0814 C   0  0  0  0  0  0  0  0  0  0  0  0
  -25.9737   14.5929   29.3390 N   0  0  0  0  0  0  0  0  0  0  0  0
  -27.0984   15.5018   29.5137 C   0  0  0  0  0  0  0  0  0  0  0  0
  -26.8996   16.1481   30.3747 H   0  0  0  0  0  0  0  0  0  0  0  0
  -27.9989   14.9100   29.7018 H   0  0  0  0  0  0  0  0  0  0  0  0
  -27.2636   16.1334   28.6375 H   0  0  0  0  0  0  0  0  0  0  0  0
  -25.5563   13.8725   30.5347 C   0  0  0  0  0  0  0  0  0  0  0  0
  -26.4446   13.5565   31.0913 H   0  0  0  0  0  0  0  0  0  0  0  0
  -24.9606   14.5455   31.1581 H   0  0  0  0  0  0  0  0  0  0  0  0
  -24.9795   12.9785   30.2894 H   0  0  0  0  0  0  0  0  0  0  0  0
  -24.1026   13.7943   27.9247 C   0  0  0  0  0  0  0  0  0  0  0  0
  -23.7468   13.0428   26.8447 C   0  0  0  0  0  0  0  0  0  0  0  0
  -24.2869   12.7684   25.9761 H   0  0  0  0  0  0  0  0  0  0  0  0
  -22.4756   12.6638   27.0580 N   0  0  0  0  0  0  0  0  0  0  0  0
  -21.9141   12.0764   26.4126 H   0  0  0  0  0  0  0  0  0  0  0  0
  -21.9877   13.1470   28.2330 N   0  0  0  0  0  0  0  0  0  0  0  0
  -22.9710   13.8333   28.7423 C   0  0  0  0  0  0  0  0  0  0  0  0
  -22.8933   14.3551   29.6636 H   0  0  0  0  0  0  0  0  0  0  0  0
  1  2  2  0
  2  3  1  0
  2 12  1  0
  3  4  1  0
  3  8  1  0
  4  5  1  0
  4  6  1  0
  4  7  1  0
  8  9  1  0
  8 10  1  0
  8 11  1  0
 12 13  2  0
 12 18  1  0
 13 14  1  0
 13 15  1  0
 15 16  1  0
 15 17  1  0
 17 18  2  0
 18 19  1  0
M  END
$$$$
