
     RDKit          3D

 19 19  0  0  0  0  0  0  0  0999 V2000
  -16.6043   20.5032   25.4708 O   0  0  0  0  0  0  0  0  0  0  0  0
  -16.9906   19.4311   25.9307 C   0  0  0  0  0  0  0  0  0  0  0  0
  -18.3356   19.3520   26.2868 N   0  0  0  0  0  0  0  0  0  0  0  0
  -19.1269   20.5688   26.4085 C   0  0  0  0  0  0  0  0  0  0  0  0
  -19.6659   20.5457   27.3612 H   0  0  0  0  0  0  0  0  0  0  0  0
  -19.8447   20.6019   25.5838 H   0  0  0  0  0  0  0  0  0  0  0  0
  -18.5108   21.4708   26.3812 H   0  0  0  0  0  0  0  0  0  0  0  0
  -19.0544   18.1081   26.5288 C   0  0  0  0  0  0  0  0  0  0  0  0
  -20.0473   18.1731   26.0719 H   0  0  0  0  0  0  0  0  0  0  0  0
  -19.1626   17.9713   27.6086 H   0  0  0  0  0  0  0  0  0  0  0  0
  -18.5402   17.2502   26.0910 H   0  0  0  0  0  0  0  0  0  0  0  0
  -16.1035   18.2938   26.0944 C   0  0  0  0  0  0  0  0  0  0  0  0
  -15.0757   17.9948   25.2506 C   0  0  0  0  0  0  0  0  0  0  0  0
  -14.7426   18.4639   24.3615 H   0  0  0  0  0  0  0  0  0  0  0  0
  -14.4767   16.9077   25.7650 N   0  0  0  0  0  0  0  0  0  0  0  0
  -13.6540   16.4300   25.3504 H   0  0  0  0  0  0  0  0  0  0  0  0
  -15.0714   16.4922   26.9164 N   0  0  0  0  0  0  0  0  0  0  0  0
  -16.0430   17.3379   27.1108 C   0  0  0  0  0  0  0  0  0  0  0  0
  -16.6904   17.2891   27.9509 H   0  0  0  0  0  0  0  0  0  0  0  0
  1  2  2  0
  2  3  1  0
  2 12  1  0
  3  4  1  0
  3  8  1  0
  4  5  1  0
  4  6  1  0
  4  7  1  0
  8  9  1  0
  8 10  1  0
  8 11  1  0
 12 13  2  0
 12 18  1  0
 13 14  1  0
 13 15  1  0
 15 16  1  0
 15 17  1  0
 17 18  2  0
 18 19  1  0
M  END
$$$$
