
     RDKit          3D

 39 40  0  0  0  0  0  0  0  0999 V2000
  -24.1403   11.7640   26.1785 O   0  0  0  0  0  0  0  0  0  0  0  0
  -23.6579   11.9398   27.2929 C   0  0  0  0  0  0  0  0  0  0  0  0
  -22.5816   10.9977   27.8301 C   0  0  0  0  0  0  0  0  0  0  0  0
  -23.0009   10.4964   28.7105 H   0  0  0  0  0  0  0  0  0  0  0  0
  -22.3838   10.1984   27.1055 H   0  0  0  0  0  0  0  0  0  0  0  0
  -21.3761   11.6268   28.2320 O   0  0  0  0  0  0  0  0  0  0  0  0
  -20.5572   12.1634   27.2715 C   0  0  0  0  0  0  0  0  0  0  0  0
  -19.9735   11.4637   26.2161 C   0  0  0  0  0  0  0  0  0  0  0  0
  -20.1307   10.4239   26.0953 H   0  0  0  0  0  0  0  0  0  0  0  0
  -19.1677   12.1446   25.3090 C   0  0  0  0  0  0  0  0  0  0  0  0
  -18.7265   11.6173   24.5015 H   0  0  0  0  0  0  0  0  0  0  0  0
  -18.9352   13.5123   25.4567 C   0  0  0  0  0  0  0  0  0  0  0  0
  -18.0910   14.2486   24.4557 C   0  0  0  0  0  0  0  0  0  0  0  0
  -18.7211   14.6297   23.6461 H   0  0  0  0  0  0  0  0  0  0  0  0
  -17.5700   15.0884   24.9253 H   0  0  0  0  0  0  0  0  0  0  0  0
  -17.3273   13.5903   24.0292 H   0  0  0  0  0  0  0  0  0  0  0  0
  -19.5170   14.1987   26.5237 C   0  0  0  0  0  0  0  0  0  0  0  0
  -19.3412   15.2359   26.6460 H   0  0  0  0  0  0  0  0  0  0  0  0
  -20.3250   13.5251   27.4344 C   0  0  0  0  0  0  0  0  0  0  0  0
  -20.7606   14.0418   28.2502 H   0  0  0  0  0  0  0  0  0  0  0  0
  -24.1116   12.9720   28.0505 N   0  0  0  0  0  0  0  0  0  0  0  0
  -25.0374   13.9584   27.4751 C   0  0  0  0  0  0  0  0  0  0  0  0
  -24.4771   14.8975   27.3807 H   0  0  0  0  0  0  0  0  0  0  0  0
  -25.3575   13.6750   26.4681 H   0  0  0  0  0  0  0  0  0  0  0  0
  -26.2710   14.1713   28.3562 C   0  0  0  0  0  0  0  0  0  0  0  0
  -26.8756   13.2614   28.4305 H   0  0  0  0  0  0  0  0  0  0  0  0
  -26.8812   14.9969   27.9787 H   0  0  0  0  0  0  0  0  0  0  0  0
  -25.8332   14.5372   29.7661 N   0  0  0  0  0  0  0  0  0  0  0  0
  -25.2815   15.4049   29.7042 H   0  0  0  0  0  0  0  0  0  0  0  0
  -27.0053   14.8345   30.6553 C   0  0  0  0  0  0  0  0  0  0  0  0
  -26.6203   15.1430   31.6309 H   0  0  0  0  0  0  0  0  0  0  0  0
  -27.5744   15.6515   30.2032 H   0  0  0  0  0  0  0  0  0  0  0  0
  -27.6166   13.9327   30.7427 H   0  0  0  0  0  0  0  0  0  0  0  0
  -24.9348   13.4623   30.3530 C   0  0  0  0  0  0  0  0  0  0  0  0
  -25.5389   12.5536   30.4473 H   0  0  0  0  0  0  0  0  0  0  0  0
  -24.6185   13.8020   31.3440 H   0  0  0  0  0  0  0  0  0  0  0  0
  -23.7195   13.2282   29.4432 C   0  0  0  0  0  0  0  0  0  0  0  0
  -23.1385   12.4030   29.8578 H   0  0  0  0  0  0  0  0  0  0  0  0
  -23.0767   14.1172   29.4359 H   0  0  0  0  0  0  0  0  0  0  0  0
  1  2  2  0
  2  3  1  0
  2 21  1  0
  3  4  1  0
  3  5  1  0
  3  6  1  0
  6  7  1  0
  7  8  1  0
  7 19  2  0
  8  9  1  0
  8 10  2  0
 10 11  1  0
 10 12  1  0
 12 13  1  0
 12 17  2  0
 13 14  1  0
 13 15  1  0
 13 16  1  0
 17 18  1  0
 17 19  1  0
 19 20  1  0
 21 22  1  0
 21 37  1  0
 22 23  1  0
 22 24  1  0
 22 25  1  0
 25 26  1  0
 25 27  1  0
 25 28  1  0
 28 29  1  0
 28 30  1  0
 28 34  1  0
 30 31  1  0
 30 32  1  0
 30 33  1  0
 34 35  1  0
 34 36  1  0
 34 37  1  0
 37 38  1  0
 37 39  1  0
M  END
$$$$
