
     RDKit          3D

 35 37  0  0  0  0  0  0  0  0999 V2000
  -20.0710   11.3463   24.2939 F   0  0  0  0  0  0  0  0  0  0  0  0
  -19.5396   12.4234   24.8893 C   0  0  0  0  0  0  0  0  0  0  0  0
  -20.0401   12.8247   26.1216 C   0  0  0  0  0  0  0  0  0  0  0  0
  -20.8279   12.2829   26.5766 H   0  0  0  0  0  0  0  0  0  0  0  0
  -19.4904   13.9435   26.7405 C   0  0  0  0  0  0  0  0  0  0  0  0
  -19.8679   14.2507   27.6762 H   0  0  0  0  0  0  0  0  0  0  0  0
  -18.4518   14.6544   26.1127 C   0  0  0  0  0  0  0  0  0  0  0  0
  -17.9111   15.7821   26.7174 N   0  0  0  0  0  0  0  0  0  0  0  0
  -18.6637   17.0358   26.8743 C   0  0  0  0  0  0  0  0  0  0  0  0
  -19.6455   17.0144   26.3907 H   0  0  0  0  0  0  0  0  0  0  0  0
  -18.8503   17.1864   27.9449 H   0  0  0  0  0  0  0  0  0  0  0  0
  -17.8476   18.2207   26.3334 C   0  0  0  0  0  0  0  0  0  0  0  0
  -18.3815   19.1541   26.5258 H   0  0  0  0  0  0  0  0  0  0  0  0
  -17.7280   18.1289   25.2476 H   0  0  0  0  0  0  0  0  0  0  0  0
  -16.4970   18.2398   26.9113 N   0  0  0  0  0  0  0  0  0  0  0  0
  -15.9336   19.3149   27.5574 C   0  0  0  0  0  0  0  0  0  0  0  0
  -14.7982   19.2124   27.9841 O   0  0  0  0  0  0  0  0  0  0  0  0
  -16.7124   20.5639   27.7138 C   0  0  0  0  0  0  0  0  0  0  0  0
  -17.4839   20.5105   28.4758 H   0  0  0  0  0  0  0  0  0  0  0  0
  -17.0598   21.3973   26.5004 C   0  0  0  0  0  0  0  0  0  0  0  0
  -16.7045   21.0668   25.5307 H   0  0  0  0  0  0  0  0  0  0  0  0
  -18.0317   21.8748   26.4765 H   0  0  0  0  0  0  0  0  0  0  0  0
  -16.0493   21.9022   27.4845 C   0  0  0  0  0  0  0  0  0  0  0  0
  -15.0110   21.9207   27.1717 H   0  0  0  0  0  0  0  0  0  0  0  0
  -16.3347   22.7261   28.1277 H   0  0  0  0  0  0  0  0  0  0  0  0
  -15.7558   16.9835   26.7417 C   0  0  0  0  0  0  0  0  0  0  0  0
  -15.5778   16.8649   25.6667 H   0  0  0  0  0  0  0  0  0  0  0  0
  -14.7786   17.0236   27.2331 H   0  0  0  0  0  0  0  0  0  0  0  0
  -16.5501   15.7795   27.2776 C   0  0  0  0  0  0  0  0  0  0  0  0
  -16.6184   15.8323   28.3705 H   0  0  0  0  0  0  0  0  0  0  0  0
  -15.9929   14.8718   27.0207 H   0  0  0  0  0  0  0  0  0  0  0  0
  -17.9508   14.2132   24.8769 C   0  0  0  0  0  0  0  0  0  0  0  0
  -17.1387   14.7161   24.4226 H   0  0  0  0  0  0  0  0  0  0  0  0
  -18.5031   13.0961   24.2574 C   0  0  0  0  0  0  0  0  0  0  0  0
  -18.1375   12.7545   23.3249 H   0  0  0  0  0  0  0  0  0  0  0  0
  1  2  1  0
  2  3  1  0
  2 34  2  0
  3  4  1  0
  3  5  2  0
  5  6  1  0
  5  7  1  0
  7  8  1  0
  7 32  2  0
  8  9  1  0
  8 29  1  0
  9 10  1  0
  9 11  1  0
  9 12  1  0
 12 13  1  0
 12 14  1  0
 12 15  1  0
 15 16  1  0
 15 26  1  0
 16 17  2  0
 16 18  1  0
 18 19  1  0
 18 20  1  0
 18 23  1  0
 20 21  1  0
 20 22  1  0
 20 23  1  0
 23 24  1  0
 23 25  1  0
 26 27  1  0
 26 28  1  0
 26 29  1  0
 29 30  1  0
 29 31  1  0
 32 33  1  0
 32 34  1  0
 34 35  1  0
M  END
$$$$
