
     RDKit          3D

 23 24  0  0  0  0  0  0  0  0999 V2000
  -22.1662   12.3708   27.4129 C   0  0  0  0  0  0  0  0  0  0  0  0
  -21.8586   12.4059   28.4612 H   0  0  0  0  0  0  0  0  0  0  0  0
  -21.4707   12.9472   26.7985 H   0  0  0  0  0  0  0  0  0  0  0  0
  -22.1969   11.3310   27.0790 H   0  0  0  0  0  0  0  0  0  0  0  0
  -23.4768   12.9435   27.2701 N   0  0  0  0  0  0  0  0  0  0  0  0
  -24.1820   12.7230   26.1508 N   0  0  0  0  0  0  0  0  0  0  0  0
  -25.3232   13.3603   26.2634 N   0  0  0  0  0  0  0  0  0  0  0  0
  -25.3179   13.9723   27.4655 C   0  0  0  0  0  0  0  0  0  0  0  0
  -24.1704   13.7117   28.1119 C   0  0  0  0  0  0  0  0  0  0  0  0
  -23.7897   14.1808   29.4699 C   0  0  0  0  0  0  0  0  0  0  0  0
  -23.8802   13.3321   30.1600 H   0  0  0  0  0  0  0  0  0  0  0  0
  -22.7416   14.4948   29.4891 H   0  0  0  0  0  0  0  0  0  0  0  0
  -24.7510   15.3010   29.9370 C   0  0  0  0  0  0  0  0  0  0  0  0
  -24.2323   16.6774   29.5086 C   0  0  0  0  0  0  0  0  0  0  0  0
  -23.3100   17.1764   30.1911 O   0  0  0  0  0  0  0  0  0  0  0  0
  -24.7863   17.2337   28.5362 O   0  0  0  0  0  0  0  0  0  0  0  0
  -26.2195   15.0252   29.5214 C   0  0  0  0  0  0  0  0  0  0  0  0
  -26.5517   14.1132   30.0366 H   0  0  0  0  0  0  0  0  0  0  0  0
  -26.8818   15.8297   29.8624 H   0  0  0  0  0  0  0  0  0  0  0  0
  -26.4023   14.8245   28.0002 C   0  0  0  0  0  0  0  0  0  0  0  0
  -26.3857   15.7920   27.4861 H   0  0  0  0  0  0  0  0  0  0  0  0
  -27.3796   14.3683   27.8052 H   0  0  0  0  0  0  0  0  0  0  0  0
  -24.7180   15.3277   31.0349 H   0  0  0  0  0  0  0  0  0  0  0  0
  1  2  1  0
  1  3  1  0
  1  4  1  0
  1  5  1  0
  5  6  1  0
  5  9  1  0
  6  7  2  0
  7  8  1  0
  8  9  2  0
  8 20  1  0
  9 10  1  0
 10 11  1  0
 10 12  1  0
 10 13  1  0
 13 14  1  0
 13 17  1  0
 13 23  1  0
 14 15  1  0
 14 16  2  0
 17 18  1  0
 17 19  1  0
 17 20  1  0
 20 21  1  0
 20 22  1  0
M  END
$$$$
