
     RDKit          3D

 30 31  0  0  0  0  0  0  0  0999 V2000
  -23.5937   12.3609   30.1163 N   0  0  0  0  0  0  0  0  0  0  0  0
  -22.3021   11.7056   29.8338 C   0  0  0  0  0  0  0  0  0  0  0  0
  -21.6590   11.6822   30.7178 H   0  0  0  0  0  0  0  0  0  0  0  0
  -22.4676   10.6473   29.5955 H   0  0  0  0  0  0  0  0  0  0  0  0
  -21.6097   12.3575   28.6463 C   0  0  0  0  0  0  0  0  0  0  0  0
  -21.4485   13.4280   28.7989 H   0  0  0  0  0  0  0  0  0  0  0  0
  -22.2070   12.2443   27.7349 H   0  0  0  0  0  0  0  0  0  0  0  0
  -20.6366   11.8874   28.4705 H   0  0  0  0  0  0  0  0  0  0  0  0
  -24.1995   11.9249   31.3906 C   0  0  0  0  0  0  0  0  0  0  0  0
  -25.2878   12.0477   31.3723 H   0  0  0  0  0  0  0  0  0  0  0  0
  -24.0366   10.8499   31.5407 H   0  0  0  0  0  0  0  0  0  0  0  0
  -23.5952   12.6817   32.5651 C   0  0  0  0  0  0  0  0  0  0  0  0
  -23.7676   13.7590   32.4817 H   0  0  0  0  0  0  0  0  0  0  0  0
  -22.5139   12.5220   32.6220 H   0  0  0  0  0  0  0  0  0  0  0  0
  -24.0398   12.3385   33.5044 H   0  0  0  0  0  0  0  0  0  0  0  0
  -24.2154   13.3286   29.2497 C   0  0  0  0  0  0  0  0  0  0  0  0
  -24.6406   12.9962   27.9120 N   0  0  0  0  0  0  0  0  0  0  0  0
  -24.5640   11.8254   27.2417 N   0  0  0  0  0  0  0  0  0  0  0  0
  -25.0979   12.1228   26.0974 C   0  0  0  0  0  0  0  0  0  0  0  0
  -25.1951   11.4071   25.3181 H   0  0  0  0  0  0  0  0  0  0  0  0
  -25.5181   13.3845   25.9574 N   0  0  0  0  0  0  0  0  0  0  0  0
  -25.2310   13.9344   27.1018 C   0  0  0  0  0  0  0  0  0  0  0  0
  -25.4537   15.2413   27.5009 N   0  0  0  0  0  0  0  0  0  0  0  0
  -25.0891   15.5858   28.6928 C   0  0  0  0  0  0  0  0  0  0  0  0
  -25.3206   16.9996   29.1508 C   0  0  0  0  0  0  0  0  0  0  0  0
  -24.9593   17.1555   30.1699 H   0  0  0  0  0  0  0  0  0  0  0  0
  -26.3916   17.2189   29.1169 H   0  0  0  0  0  0  0  0  0  0  0  0
  -24.7953   17.6862   28.4801 H   0  0  0  0  0  0  0  0  0  0  0  0
  -24.4460   14.6355   29.6380 C   0  0  0  0  0  0  0  0  0  0  0  0
  -24.1583   14.9680   30.5957 H   0  0  0  0  0  0  0  0  0  0  0  0
  1  2  1  0
  1  9  1  0
  1 16  1  0
  2  3  1  0
  2  4  1  0
  2  5  1  0
  5  6  1  0
  5  7  1  0
  5  8  1  0
  9 10  1  0
  9 11  1  0
  9 12  1  0
 12 13  1  0
 12 14  1  0
 12 15  1  0
 16 17  1  0
 16 29  2  0
 17 18  1  0
 17 22  1  0
 18 19  2  0
 19 20  1  0
 19 21  1  0
 21 22  2  0
 22 23  1  0
 23 24  2  0
 24 25  1  0
 24 29  1  0
 25 26  1  0
 25 27  1  0
 25 28  1  0
 29 30  1  0
M  END
$$$$
