
     RDKit          3D

 23 24  0  0  0  0  0  0  0  0999 V2000
  -19.5361   16.9840   25.9216 O   0  0  0  0  0  0  0  0  0  0  0  0
  -18.5757   16.2643   26.1772 C   0  0  0  0  0  0  0  0  0  0  0  0
  -17.3663   16.8941   26.4221 N   0  0  0  0  0  0  0  0  0  0  0  0
  -16.0622   16.2788   26.6435 C   0  0  0  0  0  0  0  0  0  0  0  0
  -16.0915   15.5540   27.4579 H   0  0  0  0  0  0  0  0  0  0  0  0
  -15.7655   15.7736   25.7184 H   0  0  0  0  0  0  0  0  0  0  0  0
  -15.1319   17.4387   26.9791 C   0  0  0  0  0  0  0  0  0  0  0  0
  -15.1348   17.6176   28.0615 H   0  0  0  0  0  0  0  0  0  0  0  0
  -14.1013   17.2553   26.6664 H   0  0  0  0  0  0  0  0  0  0  0  0
  -15.7728   18.6183   26.2643 C   0  0  0  0  0  0  0  0  0  0  0  0
  -15.5066   18.5960   25.2007 H   0  0  0  0  0  0  0  0  0  0  0  0
  -15.4699   19.5850   26.6758 H   0  0  0  0  0  0  0  0  0  0  0  0
  -17.2581   18.3464   26.4358 C   0  0  0  0  0  0  0  0  0  0  0  0
  -17.8617   18.8037   25.6467 H   0  0  0  0  0  0  0  0  0  0  0  0
  -17.6207   18.6979   27.4089 H   0  0  0  0  0  0  0  0  0  0  0  0
  -18.6665   14.8168   26.1647 C   0  0  0  0  0  0  0  0  0  0  0  0
  -17.9996   14.0224   25.2797 C   0  0  0  0  0  0  0  0  0  0  0  0
  -17.3231   14.2604   24.5000 H   0  0  0  0  0  0  0  0  0  0  0  0
  -18.3661   12.7623   25.5633 N   0  0  0  0  0  0  0  0  0  0  0  0
  -18.0297   11.9177   25.0619 H   0  0  0  0  0  0  0  0  0  0  0  0
  -19.2526   12.7058   26.5958 N   0  0  0  0  0  0  0  0  0  0  0  0
  -19.4340   13.9477   26.9442 C   0  0  0  0  0  0  0  0  0  0  0  0
  -20.0976   14.2392   27.7180 H   0  0  0  0  0  0  0  0  0  0  0  0
  1  2  2  0
  2  3  1  0
  2 16  1  0
  3  4  1  0
  3 13  1  0
  4  5  1  0
  4  6  1  0
  4  7  1  0
  7  8  1  0
  7  9  1  0
  7 10  1  0
 10 11  1  0
 10 12  1  0
 10 13  1  0
 13 14  1  0
 13 15  1  0
 16 17  2  0
 16 22  1  0
 17 18  1  0
 17 19  1  0
 19 20  1  0
 19 21  1  0
 21 22  2  0
 22 23  1  0
M  END
$$$$
