
     RDKit          3D

 17 18  0  0  0  0  0  0  0  0999 V2000
  -22.0794   10.8439   32.2861 Br  0  0  0  0  0  0  0  0  0  0  0  0
  -23.0127   11.8012   30.9489 C   0  0  0  0  0  0  0  0  0  0  0  0
  -23.1861   11.2403   29.6858 C   0  0  0  0  0  0  0  0  0  0  0  0
  -22.8029   10.2816   29.4533 H   0  0  0  0  0  0  0  0  0  0  0  0
  -23.8770   11.9829   28.7378 C   0  0  0  0  0  0  0  0  0  0  0  0
  -24.1657   11.6293   27.4280 N   0  0  0  0  0  0  0  0  0  0  0  0
  -23.9128   10.7576   26.9470 H   0  0  0  0  0  0  0  0  0  0  0  0
  -24.8589   12.6085   26.8003 C   0  0  0  0  0  0  0  0  0  0  0  0
  -25.2021   12.4839   25.6481 O   0  0  0  0  0  0  0  0  0  0  0  0
  -25.0774   13.7650   27.7730 C   0  0  0  0  0  0  0  0  0  0  0  0
  -24.5909   14.6666   27.3940 H   0  0  0  0  0  0  0  0  0  0  0  0
  -26.1470   13.9114   27.9405 H   0  0  0  0  0  0  0  0  0  0  0  0
  -24.3929   13.2369   28.9955 C   0  0  0  0  0  0  0  0  0  0  0  0
  -24.2218   13.7965   30.2571 C   0  0  0  0  0  0  0  0  0  0  0  0
  -24.6109   14.7585   30.4773 H   0  0  0  0  0  0  0  0  0  0  0  0
  -23.5298   13.0745   31.2333 C   0  0  0  0  0  0  0  0  0  0  0  0
  -23.3930   13.4903   32.1980 H   0  0  0  0  0  0  0  0  0  0  0  0
  1  2  1  0
  2  3  1  0
  2 16  2  0
  3  4  1  0
  3  5  2  0
  5  6  1  0
  5 13  1  0
  6  7  1  0
  6  8  1  0
  8  9  2  0
  8 10  1  0
 10 11  1  0
 10 12  1  0
 10 13  1  0
 13 14  2  0
 14 15  1  0
 14 16  1  0
 16 17  1  0
M  END
$$$$
