
     RDKit          3D

 23 24  0  0  0  0  0  0  0  0999 V2000
  -24.5782   16.8098   29.1445 C   0  0  0  0  0  0  0  0  0  0  0  0
  -23.6024   16.6856   29.6213 H   0  0  0  0  0  0  0  0  0  0  0  0
  -25.3548   16.9251   29.9040 H   0  0  0  0  0  0  0  0  0  0  0  0
  -24.5530   17.6844   28.4903 H   0  0  0  0  0  0  0  0  0  0  0  0
  -24.8863   15.6483   28.3557 N   0  0  0  0  0  0  0  0  0  0  0  0
  -25.8641   15.7053   27.4395 N   0  0  0  0  0  0  0  0  0  0  0  0
  -25.9540   14.5247   26.8745 N   0  0  0  0  0  0  0  0  0  0  0  0
  -25.0185   13.7395   27.4473 C   0  0  0  0  0  0  0  0  0  0  0  0
  -24.3349   14.4336   28.3710 C   0  0  0  0  0  0  0  0  0  0  0  0
  -23.2094   13.9346   29.2038 C   0  0  0  0  0  0  0  0  0  0  0  0
  -22.2786   14.3590   28.8060 H   0  0  0  0  0  0  0  0  0  0  0  0
  -23.3053   14.2907   30.2341 H   0  0  0  0  0  0  0  0  0  0  0  0
  -23.1243   12.3911   29.1172 C   0  0  0  0  0  0  0  0  0  0  0  0
  -23.9851   11.7366   30.2024 C   0  0  0  0  0  0  0  0  0  0  0  0
  -25.1160   12.2308   30.4078 O   0  0  0  0  0  0  0  0  0  0  0  0
  -23.4929   10.7821   30.8417 O   0  0  0  0  0  0  0  0  0  0  0  0
  -23.4108   11.8670   27.6860 C   0  0  0  0  0  0  0  0  0  0  0  0
  -22.6220   12.2468   27.0219 H   0  0  0  0  0  0  0  0  0  0  0  0
  -23.3448   10.7732   27.6479 H   0  0  0  0  0  0  0  0  0  0  0  0
  -24.7805   12.3149   27.1282 C   0  0  0  0  0  0  0  0  0  0  0  0
  -25.5831   11.7098   27.5646 H   0  0  0  0  0  0  0  0  0  0  0  0
  -24.8049   12.1557   26.0441 H   0  0  0  0  0  0  0  0  0  0  0  0
  -22.0960   12.1023   29.3749 H   0  0  0  0  0  0  0  0  0  0  0  0
  1  2  1  0
  1  3  1  0
  1  4  1  0
  1  5  1  0
  5  6  1  0
  5  9  1  0
  6  7  2  0
  7  8  1  0
  8  9  2  0
  8 20  1  0
  9 10  1  0
 10 11  1  0
 10 12  1  0
 10 13  1  0
 13 14  1  0
 13 17  1  0
 13 23  1  0
 14 15  1  0
 14 16  2  0
 17 18  1  0
 17 19  1  0
 17 20  1  0
 20 21  1  0
 20 22  1  0
M  END
$$$$
