
     RDKit          3D

 29 30  0  0  0  0  0  0  0  0999 V2000
  -21.4663   14.0827   28.3510 O   0  0  0  0  0  0  0  0  0  0  0  0
  -21.8391   13.2999   27.4974 C   0  0  0  0  0  0  0  0  0  0  0  0
  -21.0718   13.0423   26.3941 N   0  0  0  0  0  0  0  0  0  0  0  0
  -21.4765   12.3772   25.7250 H   0  0  0  0  0  0  0  0  0  0  0  0
  -19.8280   13.5733   26.0782 C   0  0  0  0  0  0  0  0  0  0  0  0
  -19.1348   14.5092   26.7591 C   0  0  0  0  0  0  0  0  0  0  0  0
  -19.3481   15.0390   27.6485 H   0  0  0  0  0  0  0  0  0  0  0  0
  -17.9936   14.6832   26.0471 N   0  0  0  0  0  0  0  0  0  0  0  0
  -16.8992   15.5837   26.3379 C   0  0  0  0  0  0  0  0  0  0  0  0
  -16.4022   15.2196   27.2444 H   0  0  0  0  0  0  0  0  0  0  0  0
  -16.1823   15.5160   25.5126 H   0  0  0  0  0  0  0  0  0  0  0  0
  -17.3670   17.0167   26.5168 C   0  0  0  0  0  0  0  0  0  0  0  0
  -16.5156   17.6710   26.7278 H   0  0  0  0  0  0  0  0  0  0  0  0
  -17.8654   17.3833   25.6137 H   0  0  0  0  0  0  0  0  0  0  0  0
  -18.0760   17.1002   27.3471 H   0  0  0  0  0  0  0  0  0  0  0  0
  -17.9478   13.8812   24.9422 N   0  0  0  0  0  0  0  0  0  0  0  0
  -19.0702   13.2103   24.9696 C   0  0  0  0  0  0  0  0  0  0  0  0
  -19.3413   12.4952   24.2369 H   0  0  0  0  0  0  0  0  0  0  0  0
  -23.1863   12.5189   27.5334 C   0  0  0  0  0  0  0  0  0  0  0  0
  -23.0794   11.4842   27.1734 H   0  0  0  0  0  0  0  0  0  0  0  0
  -23.9913   12.5560   28.8617 C   0  0  0  0  0  0  0  0  0  0  0  0
  -23.8285   13.4548   29.4663 H   0  0  0  0  0  0  0  0  0  0  0  0
  -23.8873   11.6750   29.5017 H   0  0  0  0  0  0  0  0  0  0  0  0
  -25.2737   12.6056   28.0103 C   0  0  0  0  0  0  0  0  0  0  0  0
  -26.0735   13.2452   28.3911 H   0  0  0  0  0  0  0  0  0  0  0  0
  -25.6852   11.6170   27.7763 H   0  0  0  0  0  0  0  0  0  0  0  0
  -24.4179   13.2029   26.8773 C   0  0  0  0  0  0  0  0  0  0  0  0
  -24.3837   14.2990   26.8822 H   0  0  0  0  0  0  0  0  0  0  0  0
  -24.6681   12.8609   25.8699 H   0  0  0  0  0  0  0  0  0  0  0  0
  1  2  2  0
  2  3  1  0
  2 19  1  0
  3  4  1  0
  3  5  1  0
  5  6  2  0
  5 17  1  0
  6  7  1  0
  6  8  1  0
  8  9  1  0
  8 16  1  0
  9 10  1  0
  9 11  1  0
  9 12  1  0
 12 13  1  0
 12 14  1  0
 12 15  1  0
 16 17  2  0
 17 18  1  0
 19 20  1  0
 19 21  1  0
 19 27  1  0
 21 22  1  0
 21 23  1  0
 21 24  1  0
 24 25  1  0
 24 26  1  0
 24 27  1  0
 27 28  1  0
 27 29  1  0
M  END
$$$$
