
     RDKit          3D

 24 25  0  0  0  0  0  0  0  0999 V2000
  -24.0919   12.8125   26.2159 F   0  0  0  0  0  0  0  0  0  0  0  0
  -23.6185   12.5980   27.4516 C   0  0  0  0  0  0  0  0  0  0  0  0
  -22.2451   12.4100   27.6921 C   0  0  0  0  0  0  0  0  0  0  0  0
  -21.2665   12.3797   26.7066 N   0  0  0  0  0  0  0  0  0  0  0  0
  -21.5679   12.1638   25.7624 H   0  0  0  0  0  0  0  0  0  0  0  0
  -19.8434   12.6173   26.8511 C   0  0  0  0  0  0  0  0  0  0  0  0
  -19.5977   13.4551   27.5051 H   0  0  0  0  0  0  0  0  0  0  0  0
  -19.4020   11.7288   27.3187 H   0  0  0  0  0  0  0  0  0  0  0  0
  -19.1806   12.8606   25.5435 C   0  0  0  0  0  0  0  0  0  0  0  0
  -19.5395   12.1813   24.4302 N   0  0  0  0  0  0  0  0  0  0  0  0
  -20.2683   11.4404   24.4023 H   0  0  0  0  0  0  0  0  0  0  0  0
  -18.8195   12.5589   23.3417 N   0  0  0  0  0  0  0  0  0  0  0  0
  -18.0082   13.4812   23.7840 C   0  0  0  0  0  0  0  0  0  0  0  0
  -17.3056   13.9828   23.1680 H   0  0  0  0  0  0  0  0  0  0  0  0
  -18.1983   13.6990   25.1433 C   0  0  0  0  0  0  0  0  0  0  0  0
  -17.6712   14.3922   25.7486 H   0  0  0  0  0  0  0  0  0  0  0  0
  -21.8149   12.2292   29.0085 C   0  0  0  0  0  0  0  0  0  0  0  0
  -20.7829   12.1059   29.2147 H   0  0  0  0  0  0  0  0  0  0  0  0
  -22.7440   12.2049   30.0468 C   0  0  0  0  0  0  0  0  0  0  0  0
  -22.4123   12.0619   31.0451 H   0  0  0  0  0  0  0  0  0  0  0  0
  -24.1059   12.3720   29.7894 C   0  0  0  0  0  0  0  0  0  0  0  0
  -24.8024   12.3534   30.5888 H   0  0  0  0  0  0  0  0  0  0  0  0
  -24.5466   12.5747   28.4830 C   0  0  0  0  0  0  0  0  0  0  0  0
  -25.5761   12.7153   28.2748 H   0  0  0  0  0  0  0  0  0  0  0  0
  1  2  1  0
  2  3  1  0
  2 23  2  0
  3  4  1  0
  3 17  2  0
  4  5  1  0
  4  6  1  0
  6  7  1  0
  6  8  1  0
  6  9  1  0
  9 10  1  0
  9 15  2  0
 10 11  1  0
 10 12  1  0
 12 13  2  0
 13 14  1  0
 13 15  1  0
 15 16  1  0
 17 18  1  0
 17 19  1  0
 19 20  1  0
 19 21  2  0
 21 22  1  0
 21 23  1  0
 23 24  1  0
M  END
$$$$
