
     RDKit          3D

 39 40  0  0  0  0  0  0  0  0999 V2000
  -16.9886   20.6840   28.8587 O   0  0  0  0  0  0  0  0  0  0  0  0
  -17.8939   20.4892   28.0538 C   0  0  0  0  0  0  0  0  0  0  0  0
  -19.1118   21.4112   28.0175 C   0  0  0  0  0  0  0  0  0  0  0  0
  -18.9748   22.1591   28.8076 H   0  0  0  0  0  0  0  0  0  0  0  0
  -19.1284   21.9780   27.0786 H   0  0  0  0  0  0  0  0  0  0  0  0
  -20.3574   20.7735   28.2463 O   0  0  0  0  0  0  0  0  0  0  0  0
  -20.5223   20.0336   29.3893 C   0  0  0  0  0  0  0  0  0  0  0  0
  -19.6636   20.0307   30.4879 C   0  0  0  0  0  0  0  0  0  0  0  0
  -18.7867   20.6234   30.4989 H   0  0  0  0  0  0  0  0  0  0  0  0
  -19.9641   19.2316   31.5865 C   0  0  0  0  0  0  0  0  0  0  0  0
  -19.3168   19.2309   32.4266 H   0  0  0  0  0  0  0  0  0  0  0  0
  -21.1072   18.4317   31.5884 C   0  0  0  0  0  0  0  0  0  0  0  0
  -21.4437   17.5960   32.7905 C   0  0  0  0  0  0  0  0  0  0  0  0
  -22.0686   18.1714   33.4806 H   0  0  0  0  0  0  0  0  0  0  0  0
  -21.9805   16.6883   32.4984 H   0  0  0  0  0  0  0  0  0  0  0  0
  -20.5354   17.2816   33.3145 H   0  0  0  0  0  0  0  0  0  0  0  0
  -21.9527   18.4359   30.4779 C   0  0  0  0  0  0  0  0  0  0  0  0
  -22.8195   17.8274   30.4691 H   0  0  0  0  0  0  0  0  0  0  0  0
  -21.6597   19.2331   29.3758 C   0  0  0  0  0  0  0  0  0  0  0  0
  -22.2949   19.2314   28.5280 H   0  0  0  0  0  0  0  0  0  0  0  0
  -17.8069   19.4280   27.2104 N   0  0  0  0  0  0  0  0  0  0  0  0
  -16.5715   18.6336   27.1490 C   0  0  0  0  0  0  0  0  0  0  0  0
  -16.1132   18.8401   26.1734 H   0  0  0  0  0  0  0  0  0  0  0  0
  -15.8515   18.9438   27.9121 H   0  0  0  0  0  0  0  0  0  0  0  0
  -16.8446   17.1341   27.2920 C   0  0  0  0  0  0  0  0  0  0  0  0
  -17.2596   16.8916   28.2759 H   0  0  0  0  0  0  0  0  0  0  0  0
  -15.9340   16.5541   27.1162 H   0  0  0  0  0  0  0  0  0  0  0  0
  -17.8672   16.7009   26.2528 N   0  0  0  0  0  0  0  0  0  0  0  0
  -17.4723   16.9075   25.3242 H   0  0  0  0  0  0  0  0  0  0  0  0
  -18.1151   15.2212   26.2962 C   0  0  0  0  0  0  0  0  0  0  0  0
  -18.8123   14.9711   25.4921 H   0  0  0  0  0  0  0  0  0  0  0  0
  -17.1603   14.7133   26.1338 H   0  0  0  0  0  0  0  0  0  0  0  0
  -18.5343   14.9645   27.2723 H   0  0  0  0  0  0  0  0  0  0  0  0
  -19.1542   17.4955   26.3920 C   0  0  0  0  0  0  0  0  0  0  0  0
  -19.5846   17.2434   27.3672 H   0  0  0  0  0  0  0  0  0  0  0  0
  -19.8293   17.1719   25.5937 H   0  0  0  0  0  0  0  0  0  0  0  0
  -18.8657   19.0005   26.2855 C   0  0  0  0  0  0  0  0  0  0  0  0
  -19.7982   19.5386   26.4622 H   0  0  0  0  0  0  0  0  0  0  0  0
  -18.5248   19.2486   25.2728 H   0  0  0  0  0  0  0  0  0  0  0  0
  1  2  2  0
  2  3  1  0
  2 21  1  0
  3  4  1  0
  3  5  1  0
  3  6  1  0
  6  7  1  0
  7  8  1  0
  7 19  2  0
  8  9  1  0
  8 10  2  0
 10 11  1  0
 10 12  1  0
 12 13  1  0
 12 17  2  0
 13 14  1  0
 13 15  1  0
 13 16  1  0
 17 18  1  0
 17 19  1  0
 19 20  1  0
 21 22  1  0
 21 37  1  0
 22 23  1  0
 22 24  1  0
 22 25  1  0
 25 26  1  0
 25 27  1  0
 25 28  1  0
 28 29  1  0
 28 30  1  0
 28 34  1  0
 30 31  1  0
 30 32  1  0
 30 33  1  0
 34 35  1  0
 34 36  1  0
 34 37  1  0
 37 38  1  0
 37 39  1  0
M  END
$$$$
