
     RDKit          3D

 21 21  0  0  0  0  0  0  0  0999 V2000
  -23.5293   13.4955   33.5389 Br  0  0  0  0  0  0  0  0  0  0  0  0
  -23.4919   13.2465   31.6634 C   0  0  0  0  0  0  0  0  0  0  0  0
  -23.8553   14.2864   30.8146 C   0  0  0  0  0  0  0  0  0  0  0  0
  -24.1570   15.2211   31.2046 H   0  0  0  0  0  0  0  0  0  0  0  0
  -23.8269   14.0892   29.4373 C   0  0  0  0  0  0  0  0  0  0  0  0
  -24.2145   15.1387   28.6457 O   0  0  0  0  0  0  0  0  0  0  0  0
  -25.6382   15.3508   28.4868 C   0  0  0  0  0  0  0  0  0  0  0  0
  -25.7853   16.0855   27.6969 H   0  0  0  0  0  0  0  0  0  0  0  0
  -26.0364   15.7117   29.4340 H   0  0  0  0  0  0  0  0  0  0  0  0
  -26.1099   14.4066   28.2167 H   0  0  0  0  0  0  0  0  0  0  0  0
  -23.4224   12.8671   28.8824 C   0  0  0  0  0  0  0  0  0  0  0  0
  -23.3409   12.6277   27.3744 C   0  0  0  0  0  0  0  0  0  0  0  0
  -22.7723   11.7289   27.1927 H   0  0  0  0  0  0  0  0  0  0  0  0
  -22.9283   13.4812   26.8630 H   0  0  0  0  0  0  0  0  0  0  0  0
  -24.7357   12.3958   26.8386 C   0  0  0  0  0  0  0  0  0  0  0  0
  -25.0196   12.9055   25.7309 O   0  0  0  0  0  0  0  0  0  0  0  0
  -25.5380   11.7546   27.5532 O   0  0  0  0  0  0  0  0  0  0  0  0
  -23.0689   11.8342   29.7491 C   0  0  0  0  0  0  0  0  0  0  0  0
  -22.7799   10.8942   29.3473 H   0  0  0  0  0  0  0  0  0  0  0  0
  -23.1026   12.0191   31.1291 C   0  0  0  0  0  0  0  0  0  0  0  0
  -22.8347   11.2224   31.7727 H   0  0  0  0  0  0  0  0  0  0  0  0
  1  2  1  0
  2  3  1  0
  2 20  2  0
  3  4  1  0
  3  5  2  0
  5  6  1  0
  5 11  1  0
  6  7  1  0
  7  8  1  0
  7  9  1  0
  7 10  1  0
 11 12  1  0
 11 18  2  0
 12 13  1  0
 12 14  1  0
 12 15  1  0
 15 16  1  0
 15 17  2  0
 18 19  1  0
 18 20  1  0
 20 21  1  0
M  END
$$$$
