
     RDKit          3D

 29 30  0  0  0  0  0  0  0  0999 V2000
  -24.9772   12.8834   31.9022 F   0  0  0  0  0  0  0  0  0  0  0  0
  -24.4283   11.6810   31.6717 C   0  0  0  0  0  0  0  0  0  0  0  0
  -23.6616   11.4838   30.5210 C   0  0  0  0  0  0  0  0  0  0  0  0
  -23.4241   12.5996   29.5349 C   0  0  0  0  0  0  0  0  0  0  0  0
  -22.4279   12.5010   29.0849 H   0  0  0  0  0  0  0  0  0  0  0  0
  -23.3896   13.5442   30.0944 H   0  0  0  0  0  0  0  0  0  0  0  0
  -24.4758   12.6832   28.4336 C   0  0  0  0  0  0  0  0  0  0  0  0
  -25.7997   13.2527   28.8335 C   0  0  0  0  0  0  0  0  0  0  0  0
  -26.7919   12.5780   29.0209 O   0  0  0  0  0  0  0  0  0  0  0  0
  -25.8694   14.5999   28.9682 N   0  0  0  0  0  0  0  0  0  0  0  0
  -25.0396   15.1357   28.7559 H   0  0  0  0  0  0  0  0  0  0  0  0
  -27.0660   15.2907   29.3773 C   0  0  0  0  0  0  0  0  0  0  0  0
  -27.8350   15.1561   28.6121 H   0  0  0  0  0  0  0  0  0  0  0  0
  -27.4189   14.8782   30.3257 H   0  0  0  0  0  0  0  0  0  0  0  0
  -26.8353   16.3525   29.4936 H   0  0  0  0  0  0  0  0  0  0  0  0
  -24.4717   11.6976   27.2612 C   0  0  0  0  0  0  0  0  0  0  0  0
  -25.4232   11.4358   26.8072 H   0  0  0  0  0  0  0  0  0  0  0  0
  -23.7488   10.8917   27.2268 H   0  0  0  0  0  0  0  0  0  0  0  0
  -23.9622   13.0830   27.0485 C   0  0  0  0  0  0  0  0  0  0  0  0
  -24.5634   13.7606   26.4520 H   0  0  0  0  0  0  0  0  0  0  0  0
  -22.8957   13.2089   26.9002 H   0  0  0  0  0  0  0  0  0  0  0  0
  -23.1166   10.2171   30.3082 C   0  0  0  0  0  0  0  0  0  0  0  0
  -22.5322   10.0265   29.4449 H   0  0  0  0  0  0  0  0  0  0  0  0
  -23.3386    9.1897   31.2260 C   0  0  0  0  0  0  0  0  0  0  0  0
  -22.9188    8.2298   31.0536 H   0  0  0  0  0  0  0  0  0  0  0  0
  -24.1064    9.4126   32.3685 C   0  0  0  0  0  0  0  0  0  0  0  0
  -24.2700    8.6259   33.0610 H   0  0  0  0  0  0  0  0  0  0  0  0
  -24.6580   10.6691   32.5957 C   0  0  0  0  0  0  0  0  0  0  0  0
  -25.2447   10.8580   33.4568 H   0  0  0  0  0  0  0  0  0  0  0  0
  1  2  1  0
  2  3  1  0
  2 28  2  0
  3  4  1  0
  3 22  2  0
  4  5  1  0
  4  6  1  0
  4  7  1  0
  7  8  1  0
  7 16  1  0
  7 19  1  0
  8  9  2  0
  8 10  1  0
 10 11  1  0
 10 12  1  0
 12 13  1  0
 12 14  1  0
 12 15  1  0
 16 17  1  0
 16 18  1  0
 16 19  1  0
 19 20  1  0
 19 21  1  0
 22 23  1  0
 22 24  1  0
 24 25  1  0
 24 26  2  0
 26 27  1  0
 26 28  1  0
 28 29  1  0
M  END
$$$$
