
     RDKit          3D

 16 17  0  0  0  0  0  0  0  0999 V2000
  -23.4823   15.5764   31.3183 Br  0  0  0  0  0  0  0  0  0  0  0  0
  -24.5287   15.6439   29.7395 C   0  0  0  0  0  0  0  0  0  0  0  0
  -24.5900   14.5783   28.8003 C   0  0  0  0  0  0  0  0  0  0  0  0
  -25.4110   14.7565   27.6608 C   0  0  0  0  0  0  0  0  0  0  0  0
  -26.1222   15.9036   27.4620 N   0  0  0  0  0  0  0  0  0  0  0  0
  -26.0552   16.8701   28.3319 C   0  0  0  0  0  0  0  0  0  0  0  0
  -26.6207   17.7515   28.1508 H   0  0  0  0  0  0  0  0  0  0  0  0
  -25.2626   16.7767   29.4918 C   0  0  0  0  0  0  0  0  0  0  0  0
  -25.2419   17.5913   30.1695 H   0  0  0  0  0  0  0  0  0  0  0  0
  -25.5304   13.7878   26.7074 N   0  0  0  0  0  0  0  0  0  0  0  0
  -24.8789   12.6655   26.8346 C   0  0  0  0  0  0  0  0  0  0  0  0
  -24.9910   11.9297   26.0764 H   0  0  0  0  0  0  0  0  0  0  0  0
  -24.0397   12.4078   27.9395 C   0  0  0  0  0  0  0  0  0  0  0  0
  -23.5323   11.4792   27.9968 H   0  0  0  0  0  0  0  0  0  0  0  0
  -23.8881   13.3512   28.9234 C   0  0  0  0  0  0  0  0  0  0  0  0
  -23.2585   13.1602   29.7538 H   0  0  0  0  0  0  0  0  0  0  0  0
  1  2  1  0
  2  3  1  0
  2  8  2  0
  3  4  1  0
  3 15  2  0
  4  5  1  0
  4 10  2  0
  5  6  2  0
  6  7  1  0
  6  8  1  0
  8  9  1  0
 10 11  1  0
 11 12  1  0
 11 13  2  0
 13 14  1  0
 13 15  1  0
 15 16  1  0
M  END
$$$$
