
     RDKit          3D

 24 24  0  0  0  0  0  0  0  0999 V2000
  -20.0970   12.1127   25.2635 O   0  0  0  0  0  0  0  0  0  0  0  0
  -21.0276   11.8258   25.2737 H   0  0  0  0  0  0  0  0  0  0  0  0
  -19.8403   12.7420   26.5134 C   0  0  0  0  0  0  0  0  0  0  0  0
  -20.4609   13.6403   26.5858 H   0  0  0  0  0  0  0  0  0  0  0  0
  -20.1387   12.0455   27.3030 H   0  0  0  0  0  0  0  0  0  0  0  0
  -18.3507   13.0774   26.6635 C   0  0  0  0  0  0  0  0  0  0  0  0
  -17.7324   12.1793   26.5485 H   0  0  0  0  0  0  0  0  0  0  0  0
  -18.1760   13.4189   27.6916 H   0  0  0  0  0  0  0  0  0  0  0  0
  -17.9286   14.1504   25.7362 N   0  0  0  0  0  0  0  0  0  0  0  0
  -17.9247   13.7852   24.3199 C   0  0  0  0  0  0  0  0  0  0  0  0
  -18.0934   12.7115   24.1751 H   0  0  0  0  0  0  0  0  0  0  0  0
  -16.9578   14.0191   23.8612 H   0  0  0  0  0  0  0  0  0  0  0  0
  -18.7202   14.3151   23.7847 H   0  0  0  0  0  0  0  0  0  0  0  0
  -17.5636   15.3797   26.2289 C   0  0  0  0  0  0  0  0  0  0  0  0
  -16.3362   15.7860   25.8721 N   0  0  0  0  0  0  0  0  0  0  0  0
  -15.8003   15.1344   25.2882 H   0  0  0  0  0  0  0  0  0  0  0  0
  -15.8086   16.9885   26.2500 C   0  0  0  0  0  0  0  0  0  0  0  0
  -14.8269   17.1926   25.8989 H   0  0  0  0  0  0  0  0  0  0  0  0
  -16.5561   17.8344   27.0356 C   0  0  0  0  0  0  0  0  0  0  0  0
  -16.1673   18.7731   27.3402 H   0  0  0  0  0  0  0  0  0  0  0  0
  -17.8454   17.4509   27.4450 C   0  0  0  0  0  0  0  0  0  0  0  0
  -18.4236   18.0973   28.0608 H   0  0  0  0  0  0  0  0  0  0  0  0
  -18.3466   16.2335   27.0498 C   0  0  0  0  0  0  0  0  0  0  0  0
  -19.3075   15.9266   27.3663 H   0  0  0  0  0  0  0  0  0  0  0  0
  1  2  1  0
  1  3  1  0
  3  4  1  0
  3  5  1  0
  3  6  1  0
  6  7  1  0
  6  8  1  0
  6  9  1  0
  9 10  1  0
  9 14  1  0
 10 11  1  0
 10 12  1  0
 10 13  1  0
 14 15  1  0
 14 23  2  0
 15 16  1  0
 15 17  2  0
 17 18  1  0
 17 19  1  0
 19 20  1  0
 19 21  2  0
 21 22  1  0
 21 23  1  0
 23 24  1  0
M  END
$$$$
