
     RDKit          3D

 27 28  0  0  0  0  0  0  0  0999 V2000
  -24.6742   14.5181   30.6230 O   0  0  0  0  0  0  0  0  0  0  0  0
  -23.8847   15.6979   30.6914 C   0  0  0  0  0  0  0  0  0  0  0  0
  -24.3681   16.3830   31.3951 H   0  0  0  0  0  0  0  0  0  0  0  0
  -23.8388   16.1998   29.7187 H   0  0  0  0  0  0  0  0  0  0  0  0
  -22.8823   15.4816   31.0751 H   0  0  0  0  0  0  0  0  0  0  0  0
  -24.2720   13.5063   29.7765 C   0  0  0  0  0  0  0  0  0  0  0  0
  -23.8929   12.3060   30.3942 C   0  0  0  0  0  0  0  0  0  0  0  0
  -23.4504   11.2597   29.5709 C   0  0  0  0  0  0  0  0  0  0  0  0
  -22.9821    9.9903   29.9860 N   0  0  0  0  0  0  0  0  0  0  0  0
  -22.8001    9.3203   29.2290 H   0  0  0  0  0  0  0  0  0  0  0  0
  -22.6955    9.4394   31.1950 C   0  0  0  0  0  0  0  0  0  0  0  0
  -22.2767    8.3082   31.1112 O   0  0  0  0  0  0  0  0  0  0  0  0
  -22.8005   10.1844   32.4799 C   0  0  0  0  0  0  0  0  0  0  0  0
  -22.7395    9.4460   33.2887 H   0  0  0  0  0  0  0  0  0  0  0  0
  -21.9398   10.8548   32.5810 H   0  0  0  0  0  0  0  0  0  0  0  0
  -24.1191   10.9071   32.5769 C   0  0  0  0  0  0  0  0  0  0  0  0
  -24.9407   10.3125   32.1577 H   0  0  0  0  0  0  0  0  0  0  0  0
  -24.3502   11.0698   33.6362 H   0  0  0  0  0  0  0  0  0  0  0  0
  -24.0342   12.2621   31.9009 C   0  0  0  0  0  0  0  0  0  0  0  0
  -23.2109   12.8426   32.3377 H   0  0  0  0  0  0  0  0  0  0  0  0
  -24.9654   12.7723   32.1800 H   0  0  0  0  0  0  0  0  0  0  0  0
  -23.3914   11.4109   28.1834 C   0  0  0  0  0  0  0  0  0  0  0  0
  -23.0549   10.6104   27.5763 H   0  0  0  0  0  0  0  0  0  0  0  0
  -23.7765   12.6078   27.5944 C   0  0  0  0  0  0  0  0  0  0  0  0
  -23.7336   12.7193   26.5415 H   0  0  0  0  0  0  0  0  0  0  0  0
  -24.2197   13.6599   28.3878 C   0  0  0  0  0  0  0  0  0  0  0  0
  -24.5116   14.5683   27.9316 H   0  0  0  0  0  0  0  0  0  0  0  0
  1  2  1  0
  1  6  1  0
  2  3  1  0
  2  4  1  0
  2  5  1  0
  6  7  1  0
  6 26  2  0
  7  8  2  0
  7 19  1  0
  8  9  1  0
  8 22  1  0
  9 10  1  0
  9 11  1  0
 11 12  2  0
 11 13  1  0
 13 14  1  0
 13 15  1  0
 13 16  1  0
 16 17  1  0
 16 18  1  0
 16 19  1  0
 19 20  1  0
 19 21  1  0
 22 23  1  0
 22 24  2  0
 24 25  1  0
 24 26  1  0
 26 27  1  0
M  END
$$$$
