
     RDKit          3D

 23 23  0  0  0  0  0  0  0  0999 V2000
  -26.1023   14.7639   27.9869 S   0  0  0  0  0  0  0  0  0  0  0  0
  -25.4088   14.5543   26.7260 O   0  0  0  0  0  0  0  0  0  0  0  0
  -27.5480   14.6722   28.0605 O   0  0  0  0  0  0  0  0  0  0  0  0
  -25.6148   16.3518   28.6091 C   0  0  0  0  0  0  0  0  0  0  0  0
  -24.5250   16.3944   28.6626 H   0  0  0  0  0  0  0  0  0  0  0  0
  -26.0579   16.5036   29.5952 H   0  0  0  0  0  0  0  0  0  0  0  0
  -25.9818   17.1134   27.9186 H   0  0  0  0  0  0  0  0  0  0  0  0
  -25.4331   13.6387   29.1793 C   0  0  0  0  0  0  0  0  0  0  0  0
  -24.1967   12.9924   29.0072 C   0  0  0  0  0  0  0  0  0  0  0  0
  -23.4559   13.2195   27.8500 N   0  0  0  0  0  0  0  0  0  0  0  0
  -23.9251   13.7321   27.0893 H   0  0  0  0  0  0  0  0  0  0  0  0
  -22.1040   12.7721   27.6171 C   0  0  0  0  0  0  0  0  0  0  0  0
  -21.4204   13.1673   28.3760 H   0  0  0  0  0  0  0  0  0  0  0  0
  -21.7631   13.1333   26.6417 H   0  0  0  0  0  0  0  0  0  0  0  0
  -22.0455   11.6794   27.6054 H   0  0  0  0  0  0  0  0  0  0  0  0
  -23.6997   12.1464   30.0076 C   0  0  0  0  0  0  0  0  0  0  0  0
  -22.7573   11.6793   29.8986 H   0  0  0  0  0  0  0  0  0  0  0  0
  -24.4451   11.9139   31.1557 C   0  0  0  0  0  0  0  0  0  0  0  0
  -24.0721   11.2670   31.9080 H   0  0  0  0  0  0  0  0  0  0  0  0
  -25.6834   12.5257   31.3207 C   0  0  0  0  0  0  0  0  0  0  0  0
  -26.2547   12.3405   32.1954 H   0  0  0  0  0  0  0  0  0  0  0  0
  -26.1696   13.3840   30.3390 C   0  0  0  0  0  0  0  0  0  0  0  0
  -27.1122   13.8512   30.4734 H   0  0  0  0  0  0  0  0  0  0  0  0
  1  2  2  0
  1  3  2  0
  1  4  1  0
  1  8  1  0
  4  5  1  0
  4  6  1  0
  4  7  1  0
  8  9  1  0
  8 22  2  0
  9 10  1  0
  9 16  2  0
 10 11  1  0
 10 12  1  0
 12 13  1  0
 12 14  1  0
 12 15  1  0
 16 17  1  0
 16 18  1  0
 18 19  1  0
 18 20  2  0
 20 21  1  0
 20 22  1  0
 22 23  1  0
M  END
$$$$
