
     RDKit          3D

 29 30  0  0  0  0  0  0  0  0999 V2000
  -18.9142   12.4586   27.3902 C   0  0  0  0  0  0  0  0  0  0  0  0
  -19.0793   13.4663   27.7844 H   0  0  0  0  0  0  0  0  0  0  0  0
  -18.0019   12.4678   26.7833 H   0  0  0  0  0  0  0  0  0  0  0  0
  -18.7239   11.7858   28.2337 H   0  0  0  0  0  0  0  0  0  0  0  0
  -20.1024   11.9786   26.5629 C   0  0  0  0  0  0  0  0  0  0  0  0
  -19.8106   10.6742   26.0603 O   0  0  0  0  0  0  0  0  0  0  0  0
  -19.0089   10.7474   25.5149 H   0  0  0  0  0  0  0  0  0  0  0  0
  -21.3704   11.9771   27.3547 C   0  0  0  0  0  0  0  0  0  0  0  0
  -22.2627   10.9211   27.4992 C   0  0  0  0  0  0  0  0  0  0  0  0
  -22.1588    9.9653   27.0490 H   0  0  0  0  0  0  0  0  0  0  0  0
  -23.2650   11.2486   28.2694 N   0  0  0  0  0  0  0  0  0  0  0  0
  -23.0264   12.5413   28.6298 N   0  0  0  0  0  0  0  0  0  0  0  0
  -23.9377   13.2552   29.4903 C   0  0  0  0  0  0  0  0  0  0  0  0
  -23.5264   14.2644   29.6343 H   0  0  0  0  0  0  0  0  0  0  0  0
  -25.3613   13.3749   28.9484 C   0  0  0  0  0  0  0  0  0  0  0  0
  -25.4388   14.1113   28.1419 H   0  0  0  0  0  0  0  0  0  0  0  0
  -25.7235   12.4177   28.5548 H   0  0  0  0  0  0  0  0  0  0  0  0
  -26.1892   13.7705   30.1675 C   0  0  0  0  0  0  0  0  0  0  0  0
  -26.3084   14.8594   30.2110 H   0  0  0  0  0  0  0  0  0  0  0  0
  -27.1925   13.3338   30.1243 H   0  0  0  0  0  0  0  0  0  0  0  0
  -25.4104   13.2867   31.3911 C   0  0  0  0  0  0  0  0  0  0  0  0
  -26.0032   12.6012   32.0063 H   0  0  0  0  0  0  0  0  0  0  0  0
  -25.1418   14.1432   32.0214 H   0  0  0  0  0  0  0  0  0  0  0  0
  -24.1533   12.6086   30.8571 C   0  0  0  0  0  0  0  0  0  0  0  0
  -24.3267   11.5288   30.7663 H   0  0  0  0  0  0  0  0  0  0  0  0
  -23.2956   12.7473   31.5240 H   0  0  0  0  0  0  0  0  0  0  0  0
  -21.8774   12.9987   28.0834 C   0  0  0  0  0  0  0  0  0  0  0  0
  -21.5227   13.9813   28.2559 H   0  0  0  0  0  0  0  0  0  0  0  0
  -20.2253   12.6358   25.6927 H   0  0  0  0  0  0  0  0  0  0  0  0
  1  2  1  0
  1  3  1  0
  1  4  1  0
  1  5  1  0
  5  6  1  0
  5  8  1  0
  5 29  1  0
  6  7  1  0
  8  9  1  0
  8 27  2  0
  9 10  1  0
  9 11  2  0
 11 12  1  0
 12 13  1  0
 12 27  1  0
 13 14  1  0
 13 15  1  0
 13 24  1  0
 15 16  1  0
 15 17  1  0
 15 18  1  0
 18 19  1  0
 18 20  1  0
 18 21  1  0
 21 22  1  0
 21 23  1  0
 21 24  1  0
 24 25  1  0
 24 26  1  0
 27 28  1  0
M  END
$$$$
