
     RDKit          3D

 24 25  0  0  0  0  0  0  0  0999 V2000
  -15.8731   17.5818   27.7287 S   0  0  0  0  0  0  0  0  0  0  0  0
  -15.6725   16.5438   28.7202 O   0  0  0  0  0  0  0  0  0  0  0  0
  -17.0763   18.3977   27.7390 O   0  0  0  0  0  0  0  0  0  0  0  0
  -15.7182   16.8658   26.1004 C   0  0  0  0  0  0  0  0  0  0  0  0
  -15.8817   17.6608   25.3675 H   0  0  0  0  0  0  0  0  0  0  0  0
  -14.7014   16.4757   26.0027 H   0  0  0  0  0  0  0  0  0  0  0  0
  -16.7286   15.7867   25.9270 C   0  0  0  0  0  0  0  0  0  0  0  0
  -17.7277   15.5503   26.8318 N   0  0  0  0  0  0  0  0  0  0  0  0
  -17.8756   16.0440   27.7235 H   0  0  0  0  0  0  0  0  0  0  0  0
  -18.4983   14.5422   26.3545 C   0  0  0  0  0  0  0  0  0  0  0  0
  -17.9228   14.2007   25.1483 C   0  0  0  0  0  0  0  0  0  0  0  0
  -16.8216   14.9956   24.9102 N   0  0  0  0  0  0  0  0  0  0  0  0
  -18.4943   13.1712   24.3889 C   0  0  0  0  0  0  0  0  0  0  0  0
  -18.0570   12.9026   23.4631 H   0  0  0  0  0  0  0  0  0  0  0  0
  -19.6237   12.5208   24.8697 C   0  0  0  0  0  0  0  0  0  0  0  0
  -20.0636   11.7402   24.3043 H   0  0  0  0  0  0  0  0  0  0  0  0
  -20.1955   12.8902   26.1094 C   0  0  0  0  0  0  0  0  0  0  0  0
  -21.0587   12.3808   26.4577 H   0  0  0  0  0  0  0  0  0  0  0  0
  -19.6376   13.9072   26.8674 C   0  0  0  0  0  0  0  0  0  0  0  0
  -20.0548   14.1933   27.7983 H   0  0  0  0  0  0  0  0  0  0  0  0
  -14.4796   18.6780   27.8103 C   0  0  0  0  0  0  0  0  0  0  0  0
  -13.5648   18.0930   27.7010 H   0  0  0  0  0  0  0  0  0  0  0  0
  -14.4929   19.1747   28.7826 H   0  0  0  0  0  0  0  0  0  0  0  0
  -14.5644   19.4181   27.0117 H   0  0  0  0  0  0  0  0  0  0  0  0
  1  2  2  0
  1  3  2  0
  1  4  1  0
  1 21  1  0
  4  5  1  0
  4  6  1  0
  4  7  1  0
  7  8  1  0
  7 12  2  0
  8  9  1  0
  8 10  1  0
 10 11  1  0
 10 19  2  0
 11 12  1  0
 11 13  2  0
 13 14  1  0
 13 15  1  0
 15 16  1  0
 15 17  2  0
 17 18  1  0
 17 19  1  0
 19 20  1  0
 21 22  1  0
 21 23  1  0
 21 24  1  0
M  END
$$$$
