
     RDKit          3D

 32 33  0  0  0  0  0  0  0  0999 V2000
  -26.3185   14.9047   27.4231 O   0  0  0  0  0  0  0  0  0  0  0  0
  -26.3742   14.4016   28.5355 C   0  0  0  0  0  0  0  0  0  0  0  0
  -27.4264   14.4967   29.3904 O   0  0  0  0  0  0  0  0  0  0  0  0
  -28.5055   15.3028   28.9117 C   0  0  0  0  0  0  0  0  0  0  0  0
  -28.9051   14.8932   27.9793 H   0  0  0  0  0  0  0  0  0  0  0  0
  -28.1747   16.3373   28.7712 H   0  0  0  0  0  0  0  0  0  0  0  0
  -29.2970   15.2905   29.6654 H   0  0  0  0  0  0  0  0  0  0  0  0
  -25.3810   13.6823   29.1261 N   0  0  0  0  0  0  0  0  0  0  0  0
  -25.5923   13.4079   30.0900 H   0  0  0  0  0  0  0  0  0  0  0  0
  -24.1297   13.2881   28.6046 C   0  0  0  0  0  0  0  0  0  0  0  0
  -23.8213   13.3298   27.2428 C   0  0  0  0  0  0  0  0  0  0  0  0
  -24.5362   13.6599   26.5368 H   0  0  0  0  0  0  0  0  0  0  0  0
  -22.5622   12.9231   26.8146 C   0  0  0  0  0  0  0  0  0  0  0  0
  -22.3295   12.9536   25.7806 H   0  0  0  0  0  0  0  0  0  0  0  0
  -21.6099   12.4719   27.7307 C   0  0  0  0  0  0  0  0  0  0  0  0
  -20.2503   12.0111   27.2552 C   0  0  0  0  0  0  0  0  0  0  0  0
  -20.3452   11.0213   26.7892 H   0  0  0  0  0  0  0  0  0  0  0  0
  -19.5891   11.8477   28.1165 H   0  0  0  0  0  0  0  0  0  0  0  0
  -19.5951   12.9701   26.2938 C   0  0  0  0  0  0  0  0  0  0  0  0
  -19.3810   14.3007   26.6337 C   0  0  0  0  0  0  0  0  0  0  0  0
  -19.6598   14.6653   27.5873 H   0  0  0  0  0  0  0  0  0  0  0  0
  -18.7952   15.1641   25.7134 C   0  0  0  0  0  0  0  0  0  0  0  0
  -18.6293   16.1816   25.9647 H   0  0  0  0  0  0  0  0  0  0  0  0
  -18.4274   14.7548   24.5013 N   0  0  0  0  0  0  0  0  0  0  0  0
  -18.6251   13.4850   24.1522 C   0  0  0  0  0  0  0  0  0  0  0  0
  -18.3266   13.1842   23.1792 H   0  0  0  0  0  0  0  0  0  0  0  0
  -19.2061   12.5677   25.0219 C   0  0  0  0  0  0  0  0  0  0  0  0
  -19.3539   11.5665   24.7077 H   0  0  0  0  0  0  0  0  0  0  0  0
  -21.9351   12.4231   29.0886 C   0  0  0  0  0  0  0  0  0  0  0  0
  -21.2233   12.0786   29.7940 H   0  0  0  0  0  0  0  0  0  0  0  0
  -23.1912   12.8276   29.5277 C   0  0  0  0  0  0  0  0  0  0  0  0
  -23.4306   12.7926   30.5589 H   0  0  0  0  0  0  0  0  0  0  0  0
  1  2  2  0
  2  3  1  0
  2  8  1  0
  3  4  1  0
  4  5  1  0
  4  6  1  0
  4  7  1  0
  8  9  1  0
  8 10  1  0
 10 11  1  0
 10 31  2  0
 11 12  1  0
 11 13  2  0
 13 14  1  0
 13 15  1  0
 15 16  1  0
 15 29  2  0
 16 17  1  0
 16 18  1  0
 16 19  1  0
 19 20  1  0
 19 27  2  0
 20 21  1  0
 20 22  2  0
 22 23  1  0
 22 24  1  0
 24 25  2  0
 25 26  1  0
 25 27  1  0
 27 28  1  0
 29 30  1  0
 29 31  1  0
 31 32  1  0
M  END
$$$$
