
     RDKit          3D

 21 21  0  0  0  0  0  0  0  0999 V2000
  -22.7533    8.7204   31.3970 Br  0  0  0  0  0  0  0  0  0  0  0  0
  -23.3916   10.3820   30.7546 C   0  0  0  0  0  0  0  0  0  0  0  0
  -23.1024   10.7848   29.4554 C   0  0  0  0  0  0  0  0  0  0  0  0
  -22.5245   10.1728   28.8166 H   0  0  0  0  0  0  0  0  0  0  0  0
  -23.5749   12.0107   28.9963 C   0  0  0  0  0  0  0  0  0  0  0  0
  -23.2443   12.3702   27.7157 O   0  0  0  0  0  0  0  0  0  0  0  0
  -21.8815   12.8026   27.4860 C   0  0  0  0  0  0  0  0  0  0  0  0
  -21.8246   13.2262   26.4846 H   0  0  0  0  0  0  0  0  0  0  0  0
  -21.2287   11.9360   27.5805 H   0  0  0  0  0  0  0  0  0  0  0  0
  -21.6173   13.5542   28.2293 H   0  0  0  0  0  0  0  0  0  0  0  0
  -24.3533   12.8451   29.8106 C   0  0  0  0  0  0  0  0  0  0  0  0
  -24.9222   14.1794   29.3270 C   0  0  0  0  0  0  0  0  0  0  0  0
  -24.1768   14.6826   28.7309 H   0  0  0  0  0  0  0  0  0  0  0  0
  -25.2607   14.7840   30.1517 H   0  0  0  0  0  0  0  0  0  0  0  0
  -26.1104   13.9102   28.4313 C   0  0  0  0  0  0  0  0  0  0  0  0
  -27.0063   13.1560   28.8737 O   0  0  0  0  0  0  0  0  0  0  0  0
  -26.1051   14.4128   27.2855 O   0  0  0  0  0  0  0  0  0  0  0  0
  -24.6265   12.4278   31.1122 C   0  0  0  0  0  0  0  0  0  0  0  0
  -25.1971   13.0564   31.7508 H   0  0  0  0  0  0  0  0  0  0  0  0
  -24.1507   11.2066   31.5836 C   0  0  0  0  0  0  0  0  0  0  0  0
  -24.3644   10.9073   32.5763 H   0  0  0  0  0  0  0  0  0  0  0  0
  1  2  1  0
  2  3  1  0
  2 20  2  0
  3  4  1  0
  3  5  2  0
  5  6  1  0
  5 11  1  0
  6  7  1  0
  7  8  1  0
  7  9  1  0
  7 10  1  0
 11 12  1  0
 11 18  2  0
 12 13  1  0
 12 14  1  0
 12 15  1  0
 15 16  1  0
 15 17  2  0
 18 19  1  0
 18 20  1  0
 20 21  1  0
M  END
$$$$
