
     RDKit          3D

 32 33  0  0  0  0  0  0  0  0999 V2000
  -25.6098   13.0965   30.6157 O   0  0  0  0  0  0  0  0  0  0  0  0
  -26.0473   12.9360   29.4859 C   0  0  0  0  0  0  0  0  0  0  0  0
  -27.3604   12.9748   29.1375 O   0  0  0  0  0  0  0  0  0  0  0  0
  -28.2481   13.2861   30.2138 C   0  0  0  0  0  0  0  0  0  0  0  0
  -28.0134   14.2695   30.6316 H   0  0  0  0  0  0  0  0  0  0  0  0
  -28.1945   12.5128   30.9874 H   0  0  0  0  0  0  0  0  0  0  0  0
  -29.2660   13.3100   29.8164 H   0  0  0  0  0  0  0  0  0  0  0  0
  -25.2993   12.6609   28.3825 N   0  0  0  0  0  0  0  0  0  0  0  0
  -25.8584   12.4884   27.5419 H   0  0  0  0  0  0  0  0  0  0  0  0
  -23.8964   12.5717   28.2517 C   0  0  0  0  0  0  0  0  0  0  0  0
  -23.0483   12.2472   29.3132 C   0  0  0  0  0  0  0  0  0  0  0  0
  -23.4382   12.0596   30.2783 H   0  0  0  0  0  0  0  0  0  0  0  0
  -21.6763   12.1803   29.0959 C   0  0  0  0  0  0  0  0  0  0  0  0
  -21.0333   11.9355   29.9026 H   0  0  0  0  0  0  0  0  0  0  0  0
  -21.1423   12.4375   27.8316 C   0  0  0  0  0  0  0  0  0  0  0  0
  -19.6476   12.3838   27.6081 C   0  0  0  0  0  0  0  0  0  0  0  0
  -19.3454   11.3444   27.4238 H   0  0  0  0  0  0  0  0  0  0  0  0
  -19.1218   12.6641   28.5306 H   0  0  0  0  0  0  0  0  0  0  0  0
  -19.1792   13.2627   26.4761 C   0  0  0  0  0  0  0  0  0  0  0  0
  -19.0559   14.6383   26.6327 C   0  0  0  0  0  0  0  0  0  0  0  0
  -19.2733   15.0971   27.5612 H   0  0  0  0  0  0  0  0  0  0  0  0
  -18.6434   15.4223   25.5600 C   0  0  0  0  0  0  0  0  0  0  0  0
  -18.5480   16.4733   25.6709 H   0  0  0  0  0  0  0  0  0  0  0  0
  -18.3587   14.8939   24.3718 N   0  0  0  0  0  0  0  0  0  0  0  0
  -18.4721   13.5785   24.1974 C   0  0  0  0  0  0  0  0  0  0  0  0
  -18.2429   13.1820   23.2401 H   0  0  0  0  0  0  0  0  0  0  0  0
  -18.8798   12.7352   25.2259 C   0  0  0  0  0  0  0  0  0  0  0  0
  -18.9649   11.6939   25.0491 H   0  0  0  0  0  0  0  0  0  0  0  0
  -22.0001   12.7733   26.7812 C   0  0  0  0  0  0  0  0  0  0  0  0
  -21.6077   12.9753   25.8178 H   0  0  0  0  0  0  0  0  0  0  0  0
  -23.3737   12.8429   26.9875 C   0  0  0  0  0  0  0  0  0  0  0  0
  -24.0196   13.0936   26.1863 H   0  0  0  0  0  0  0  0  0  0  0  0
  1  2  2  0
  2  3  1  0
  2  8  1  0
  3  4  1  0
  4  5  1  0
  4  6  1  0
  4  7  1  0
  8  9  1  0
  8 10  1  0
 10 11  1  0
 10 31  2  0
 11 12  1  0
 11 13  2  0
 13 14  1  0
 13 15  1  0
 15 16  1  0
 15 29  2  0
 16 17  1  0
 16 18  1  0
 16 19  1  0
 19 20  1  0
 19 27  2  0
 20 21  1  0
 20 22  2  0
 22 23  1  0
 22 24  1  0
 24 25  2  0
 25 26  1  0
 25 27  1  0
 27 28  1  0
 29 30  1  0
 29 31  1  0
 31 32  1  0
M  END
$$$$
