
     RDKit          3D

 24 25  0  0  0  0  0  0  0  0999 V2000
  -17.8243   14.1264   27.8806 F   0  0  0  0  0  0  0  0  0  0  0  0
  -18.3615   13.6431   26.7515 C   0  0  0  0  0  0  0  0  0  0  0  0
  -18.5299   14.4501   25.6113 C   0  0  0  0  0  0  0  0  0  0  0  0
  -18.2134   15.8011   25.5449 N   0  0  0  0  0  0  0  0  0  0  0  0
  -17.8575   16.1496   24.6613 H   0  0  0  0  0  0  0  0  0  0  0  0
  -18.3235   16.7985   26.5918 C   0  0  0  0  0  0  0  0  0  0  0  0
  -18.8763   17.6915   26.2972 H   0  0  0  0  0  0  0  0  0  0  0  0
  -18.8877   16.3527   27.4199 H   0  0  0  0  0  0  0  0  0  0  0  0
  -16.9937   17.2383   27.0883 C   0  0  0  0  0  0  0  0  0  0  0  0
  -15.9801   16.3614   27.2705 N   0  0  0  0  0  0  0  0  0  0  0  0
  -16.0514   15.3373   27.1063 H   0  0  0  0  0  0  0  0  0  0  0  0
  -14.8497   16.9665   27.7199 N   0  0  0  0  0  0  0  0  0  0  0  0
  -15.1653   18.2297   27.8159 C   0  0  0  0  0  0  0  0  0  0  0  0
  -14.4871   18.9760   28.1445 H   0  0  0  0  0  0  0  0  0  0  0  0
  -16.4846   18.4421   27.4344 C   0  0  0  0  0  0  0  0  0  0  0  0
  -16.9924   19.3730   27.4190 H   0  0  0  0  0  0  0  0  0  0  0  0
  -19.0609   13.8731   24.4556 C   0  0  0  0  0  0  0  0  0  0  0  0
  -19.1777   14.4574   23.5793 H   0  0  0  0  0  0  0  0  0  0  0  0
  -19.4420   12.5327   24.4592 C   0  0  0  0  0  0  0  0  0  0  0  0
  -19.8501   12.1004   23.5797 H   0  0  0  0  0  0  0  0  0  0  0  0
  -19.2881   11.7505   25.6053 C   0  0  0  0  0  0  0  0  0  0  0  0
  -19.5803   10.7312   25.5942 H   0  0  0  0  0  0  0  0  0  0  0  0
  -18.7396   12.3079   26.7587 C   0  0  0  0  0  0  0  0  0  0  0  0
  -18.6056   11.7224   27.6318 H   0  0  0  0  0  0  0  0  0  0  0  0
  1  2  1  0
  2  3  1  0
  2 23  2  0
  3  4  1  0
  3 17  2  0
  4  5  1  0
  4  6  1  0
  6  7  1  0
  6  8  1  0
  6  9  1  0
  9 10  1  0
  9 15  2  0
 10 11  1  0
 10 12  1  0
 12 13  2  0
 13 14  1  0
 13 15  1  0
 15 16  1  0
 17 18  1  0
 17 19  1  0
 19 20  1  0
 19 21  2  0
 21 22  1  0
 21 23  1  0
 23 24  1  0
M  END
$$$$
