
     RDKit          3D

 23 23  0  0  0  0  0  0  0  0999 V2000
  -22.8111   11.4801   27.7821 S   0  0  0  0  0  0  0  0  0  0  0  0
  -22.5152   10.0565   27.7724 O   0  0  0  0  0  0  0  0  0  0  0  0
  -23.7965   12.0374   26.8752 O   0  0  0  0  0  0  0  0  0  0  0  0
  -21.2825   12.3469   27.5409 C   0  0  0  0  0  0  0  0  0  0  0  0
  -20.5621   12.0143   28.2911 H   0  0  0  0  0  0  0  0  0  0  0  0
  -21.4606   13.4208   27.6234 H   0  0  0  0  0  0  0  0  0  0  0  0
  -20.9127   12.1099   26.5417 H   0  0  0  0  0  0  0  0  0  0  0  0
  -23.2801   11.9359   29.4278 C   0  0  0  0  0  0  0  0  0  0  0  0
  -23.3006   11.0214   30.4951 C   0  0  0  0  0  0  0  0  0  0  0  0
  -22.9563    9.6911   30.2691 N   0  0  0  0  0  0  0  0  0  0  0  0
  -22.7862    9.4132   29.2917 H   0  0  0  0  0  0  0  0  0  0  0  0
  -22.8490    8.6679   31.2809 C   0  0  0  0  0  0  0  0  0  0  0  0
  -22.1115    8.9413   32.0430 H   0  0  0  0  0  0  0  0  0  0  0  0
  -22.5193    7.7317   30.8196 H   0  0  0  0  0  0  0  0  0  0  0  0
  -23.8159    8.4805   31.7579 H   0  0  0  0  0  0  0  0  0  0  0  0
  -23.6385   11.4527   31.7848 C   0  0  0  0  0  0  0  0  0  0  0  0
  -23.6282   10.7774   32.5984 H   0  0  0  0  0  0  0  0  0  0  0  0
  -23.9911   12.7775   32.0052 C   0  0  0  0  0  0  0  0  0  0  0  0
  -24.2548   13.1007   32.9796 H   0  0  0  0  0  0  0  0  0  0  0  0
  -24.0026   13.6825   30.9490 C   0  0  0  0  0  0  0  0  0  0  0  0
  -24.2799   14.6925   31.1184 H   0  0  0  0  0  0  0  0  0  0  0  0
  -23.6460   13.2622   29.6711 C   0  0  0  0  0  0  0  0  0  0  0  0
  -23.6519   13.9586   28.8712 H   0  0  0  0  0  0  0  0  0  0  0  0
  1  2  2  0
  1  3  2  0
  1  4  1  0
  1  8  1  0
  4  5  1  0
  4  6  1  0
  4  7  1  0
  8  9  1  0
  8 22  2  0
  9 10  1  0
  9 16  2  0
 10 11  1  0
 10 12  1  0
 12 13  1  0
 12 14  1  0
 12 15  1  0
 16 17  1  0
 16 18  1  0
 18 19  1  0
 18 20  2  0
 20 21  1  0
 20 22  1  0
 22 23  1  0
M  END
$$$$
