
     RDKit          3D

 26 26  0  0  0  0  0  0  0  0999 V2000
  -19.6813   13.8033   26.6015 S   0  0  0  0  0  0  0  0  0  0  0  0
  -19.7382   14.9711   27.4535 O   0  0  0  0  0  0  0  0  0  0  0  0
  -19.2208   13.8837   25.2316 O   0  0  0  0  0  0  0  0  0  0  0  0
  -21.2012   13.0780   26.5603 N   0  0  0  0  0  0  0  0  0  0  0  0
  -21.3026   12.3342   25.8653 H   0  0  0  0  0  0  0  0  0  0  0  0
  -21.9730   12.9290   27.8088 C   0  0  0  0  0  0  0  0  0  0  0  0
  -21.4370   12.2236   28.4534 H   0  0  0  0  0  0  0  0  0  0  0  0
  -22.0528   13.8852   28.3374 H   0  0  0  0  0  0  0  0  0  0  0  0
  -23.3658   12.3699   27.5088 C   0  0  0  0  0  0  0  0  0  0  0  0
  -23.7896   12.8502   26.6173 H   0  0  0  0  0  0  0  0  0  0  0  0
  -23.2779   11.3044   27.2611 H   0  0  0  0  0  0  0  0  0  0  0  0
  -24.3259   12.5180   28.6688 C   0  0  0  0  0  0  0  0  0  0  0  0
  -24.0023   11.9798   29.9200 C   0  0  0  0  0  0  0  0  0  0  0  0
  -23.0921   11.4561   30.0557 H   0  0  0  0  0  0  0  0  0  0  0  0
  -24.8758   12.1288   30.9946 C   0  0  0  0  0  0  0  0  0  0  0  0
  -24.6422   11.7258   31.9458 H   0  0  0  0  0  0  0  0  0  0  0  0
  -26.0636   12.8192   30.8006 C   0  0  0  0  0  0  0  0  0  0  0  0
  -26.9054   12.9635   31.8341 F   0  0  0  0  0  0  0  0  0  0  0  0
  -26.4064   13.3670   29.5729 C   0  0  0  0  0  0  0  0  0  0  0  0
  -27.3171   13.8941   29.4587 H   0  0  0  0  0  0  0  0  0  0  0  0
  -25.5287   13.2122   28.5026 C   0  0  0  0  0  0  0  0  0  0  0  0
  -25.7742   13.6329   27.5603 H   0  0  0  0  0  0  0  0  0  0  0  0
  -18.7120   12.5581   27.4248 C   0  0  0  0  0  0  0  0  0  0  0  0
  -19.0816   12.4280   28.4435 H   0  0  0  0  0  0  0  0  0  0  0  0
  -17.6759   12.9029   27.4518 H   0  0  0  0  0  0  0  0  0  0  0  0
  -18.7771   11.6269   26.8596 H   0  0  0  0  0  0  0  0  0  0  0  0
  1  2  2  0
  1  3  2  0
  1  4  1  0
  1 23  1  0
  4  5  1  0
  4  6  1  0
  6  7  1  0
  6  8  1  0
  6  9  1  0
  9 10  1  0
  9 11  1  0
  9 12  1  0
 12 13  1  0
 12 21  2  0
 13 14  1  0
 13 15  2  0
 15 16  1  0
 15 17  1  0
 17 18  1  0
 17 19  2  0
 19 20  1  0
 19 21  1  0
 21 22  1  0
 23 24  1  0
 23 25  1  0
 23 26  1  0
M  END
$$$$
