
     RDKit          3D

 29 30  0  0  0  0  0  0  0  0999 V2000
  -21.4617   12.4665   27.5966 C   0  0  0  0  0  0  0  0  0  0  0  0
  -21.9082   13.4512   27.7736 H   0  0  0  0  0  0  0  0  0  0  0  0
  -21.0102   12.1206   28.5342 H   0  0  0  0  0  0  0  0  0  0  0  0
  -22.2632   11.7596   27.3551 H   0  0  0  0  0  0  0  0  0  0  0  0
  -20.4306   12.5127   26.4737 C   0  0  0  0  0  0  0  0  0  0  0  0
  -19.9063   11.1989   26.2776 O   0  0  0  0  0  0  0  0  0  0  0  0
  -20.6211   10.6530   25.9124 H   0  0  0  0  0  0  0  0  0  0  0  0
  -19.3386   13.4938   26.7614 C   0  0  0  0  0  0  0  0  0  0  0  0
  -18.2190   13.2727   27.5564 C   0  0  0  0  0  0  0  0  0  0  0  0
  -17.9936   12.3750   28.0711 H   0  0  0  0  0  0  0  0  0  0  0  0
  -17.4520   14.3267   27.5990 N   0  0  0  0  0  0  0  0  0  0  0  0
  -18.0803   15.2528   26.8185 N   0  0  0  0  0  0  0  0  0  0  0  0
  -17.5208   16.5691   26.6240 C   0  0  0  0  0  0  0  0  0  0  0  0
  -17.3861   16.7104   25.5435 H   0  0  0  0  0  0  0  0  0  0  0  0
  -18.3795   17.7082   27.1702 C   0  0  0  0  0  0  0  0  0  0  0  0
  -19.2531   17.9096   26.5414 H   0  0  0  0  0  0  0  0  0  0  0  0
  -18.7464   17.4875   28.1802 H   0  0  0  0  0  0  0  0  0  0  0  0
  -17.4245   18.8966   27.2234 C   0  0  0  0  0  0  0  0  0  0  0  0
  -17.5102   19.4944   26.3087 H   0  0  0  0  0  0  0  0  0  0  0  0
  -17.6556   19.5551   28.0667 H   0  0  0  0  0  0  0  0  0  0  0  0
  -16.0162   18.3100   27.3275 C   0  0  0  0  0  0  0  0  0  0  0  0
  -15.4988   18.6517   28.2295 H   0  0  0  0  0  0  0  0  0  0  0  0
  -15.4169   18.6295   26.4663 H   0  0  0  0  0  0  0  0  0  0  0  0
  -16.1820   16.7938   27.3246 C   0  0  0  0  0  0  0  0  0  0  0  0
  -16.2018   16.4244   28.3578 H   0  0  0  0  0  0  0  0  0  0  0  0
  -15.3553   16.2901   26.8130 H   0  0  0  0  0  0  0  0  0  0  0  0
  -19.2256   14.7614   26.3008 C   0  0  0  0  0  0  0  0  0  0  0  0
  -19.8591   15.3278   25.6680 H   0  0  0  0  0  0  0  0  0  0  0  0
  -20.9295   12.7977   25.5395 H   0  0  0  0  0  0  0  0  0  0  0  0
  1  2  1  0
  1  3  1  0
  1  4  1  0
  1  5  1  0
  5  6  1  0
  5  8  1  0
  5 29  1  0
  6  7  1  0
  8  9  1  0
  8 27  2  0
  9 10  1  0
  9 11  2  0
 11 12  1  0
 12 13  1  0
 12 27  1  0
 13 14  1  0
 13 15  1  0
 13 24  1  0
 15 16  1  0
 15 17  1  0
 15 18  1  0
 18 19  1  0
 18 20  1  0
 18 21  1  0
 21 22  1  0
 21 23  1  0
 21 24  1  0
 24 25  1  0
 24 26  1  0
 27 28  1  0
M  END
$$$$
