
     RDKit          3D

 29 31  0  0  0  0  0  0  0  0999 V2000
  -19.7202   14.0316   27.1200 O   0  0  0  0  0  0  0  0  0  0  0  0
  -20.0547   13.0789   26.4521 C   0  0  0  0  0  0  0  0  0  0  0  0
  -21.2758   12.4945   26.5977 N   0  0  0  0  0  0  0  0  0  0  0  0
  -21.4658   11.6804   26.0074 H   0  0  0  0  0  0  0  0  0  0  0  0
  -22.3171   12.8242   27.4334 C   0  0  0  0  0  0  0  0  0  0  0  0
  -23.8212   11.9555   27.4148 S   0  0  0  0  0  0  0  0  0  0  0  0
  -24.3807   13.0035   28.6717 C   0  0  0  0  0  0  0  0  0  0  0  0
  -23.3801   13.9189   28.9954 C   0  0  0  0  0  0  0  0  0  0  0  0
  -22.1980   13.8027   28.2746 N   0  0  0  0  0  0  0  0  0  0  0  0
  -23.6279   14.8682   30.0007 C   0  0  0  0  0  0  0  0  0  0  0  0
  -22.8724   15.5662   30.2500 H   0  0  0  0  0  0  0  0  0  0  0  0
  -24.8523   14.8849   30.6532 C   0  0  0  0  0  0  0  0  0  0  0  0
  -25.0348   15.6016   31.4106 H   0  0  0  0  0  0  0  0  0  0  0  0
  -25.8474   13.9440   30.3049 C   0  0  0  0  0  0  0  0  0  0  0  0
  -27.0912   13.8629   30.8801 O   0  0  0  0  0  0  0  0  0  0  0  0
  -27.9306   15.0077   30.7841 C   0  0  0  0  0  0  0  0  0  0  0  0
  -28.1646   15.2386   29.7394 H   0  0  0  0  0  0  0  0  0  0  0  0
  -28.8718   14.7756   31.2915 H   0  0  0  0  0  0  0  0  0  0  0  0
  -27.4834   15.8692   31.2908 H   0  0  0  0  0  0  0  0  0  0  0  0
  -25.6239   13.0011   29.3185 C   0  0  0  0  0  0  0  0  0  0  0  0
  -26.3718   12.2985   29.0582 H   0  0  0  0  0  0  0  0  0  0  0  0
  -19.1762   12.4895   25.4181 C   0  0  0  0  0  0  0  0  0  0  0  0
  -18.5602   11.6736   25.7864 H   0  0  0  0  0  0  0  0  0  0  0  0
  -18.6086   13.3363   24.3035 C   0  0  0  0  0  0  0  0  0  0  0  0
  -18.8762   14.3852   24.2425 H   0  0  0  0  0  0  0  0  0  0  0  0
  -17.6052   13.1150   23.9605 H   0  0  0  0  0  0  0  0  0  0  0  0
  -19.6854   12.3352   24.0054 C   0  0  0  0  0  0  0  0  0  0  0  0
  -19.4121   11.4368   23.4652 H   0  0  0  0  0  0  0  0  0  0  0  0
  -20.6772   12.7078   23.7718 H   0  0  0  0  0  0  0  0  0  0  0  0
  1  2  2  0
  2  3  1  0
  2 22  1  0
  3  4  1  0
  3  5  1  0
  5  6  1  0
  5  9  2  0
  6  7  1  0
  7  8  1  0
  7 20  2  0
  8  9  1  0
  8 10  2  0
 10 11  1  0
 10 12  1  0
 12 13  1  0
 12 14  2  0
 14 15  1  0
 14 20  1  0
 15 16  1  0
 16 17  1  0
 16 18  1  0
 16 19  1  0
 20 21  1  0
 22 23  1  0
 22 24  1  0
 22 27  1  0
 24 25  1  0
 24 26  1  0
 24 27  1  0
 27 28  1  0
 27 29  1  0
M  END
$$$$
