
     RDKit          3D

 26 27  0  0  0  0  0  0  0  0999 V2000
  -25.4929   14.3188   26.7385 O   0  0  0  0  0  0  0  0  0  0  0  0
  -25.1265   14.8566   27.7913 C   0  0  0  0  0  0  0  0  0  0  0  0
  -24.3385   14.1361   28.6990 N   0  0  0  0  0  0  0  0  0  0  0  0
  -23.9195   12.7681   28.4052 C   0  0  0  0  0  0  0  0  0  0  0  0
  -24.0389   12.1644   29.3128 H   0  0  0  0  0  0  0  0  0  0  0  0
  -24.5714   12.3379   27.6371 H   0  0  0  0  0  0  0  0  0  0  0  0
  -22.5076   12.7570   27.9624 C   0  0  0  0  0  0  0  0  0  0  0  0
  -22.2528   13.1460   26.7111 O   0  0  0  0  0  0  0  0  0  0  0  0
  -20.9390   13.0676   26.4621 N   0  0  0  0  0  0  0  0  0  0  0  0
  -20.3732   12.6370   27.5363 C   0  0  0  0  0  0  0  0  0  0  0  0
  -18.9108   12.4390   27.6054 C   0  0  0  0  0  0  0  0  0  0  0  0
  -18.6304   11.8863   28.5083 H   0  0  0  0  0  0  0  0  0  0  0  0
  -18.3945   13.4047   27.6269 H   0  0  0  0  0  0  0  0  0  0  0  0
  -18.5506   11.8730   26.7402 H   0  0  0  0  0  0  0  0  0  0  0  0
  -21.3321   12.4218   28.5157 C   0  0  0  0  0  0  0  0  0  0  0  0
  -21.1761   12.0639   29.5002 H   0  0  0  0  0  0  0  0  0  0  0  0
  -23.9078   14.6595   29.9012 N   0  0  0  0  0  0  0  0  0  0  0  0
  -24.2272   15.8710   30.2348 C   0  0  0  0  0  0  0  0  0  0  0  0
  -23.7493   16.4191   31.5496 C   0  0  0  0  0  0  0  0  0  0  0  0
  -22.6584   16.3416   31.5989 H   0  0  0  0  0  0  0  0  0  0  0  0
  -24.1847   15.8313   32.3638 H   0  0  0  0  0  0  0  0  0  0  0  0
  -24.0350   17.4661   31.6765 H   0  0  0  0  0  0  0  0  0  0  0  0
  -25.0211   16.6821   29.3728 C   0  0  0  0  0  0  0  0  0  0  0  0
  -25.2625   17.6695   29.6720 H   0  0  0  0  0  0  0  0  0  0  0  0
  -25.4596   16.1896   28.1787 C   0  0  0  0  0  0  0  0  0  0  0  0
  -26.0502   16.7660   27.5168 H   0  0  0  0  0  0  0  0  0  0  0  0
  1  2  2  0
  2  3  1  0
  2 25  1  0
  3  4  1  0
  3 17  1  0
  4  5  1  0
  4  6  1  0
  4  7  1  0
  7  8  1  0
  7 15  2  0
  8  9  1  0
  9 10  2  0
 10 11  1  0
 10 15  1  0
 11 12  1  0
 11 13  1  0
 11 14  1  0
 15 16  1  0
 17 18  2  0
 18 19  1  0
 18 23  1  0
 19 20  1  0
 19 21  1  0
 19 22  1  0
 23 24  1  0
 23 25  2  0
 25 26  1  0
M  END
$$$$
