
     RDKit          3D

 19 19  0  0  0  0  0  0  0  0999 V2000
  -18.0435   14.2041   24.1355 Br  0  0  0  0  0  0  0  0  0  0  0  0
  -19.1155   13.9057   25.6341 C   0  0  0  0  0  0  0  0  0  0  0  0
  -19.8105   12.7924   25.9514 C   0  0  0  0  0  0  0  0  0  0  0  0
  -19.9231   11.8648   25.4524 H   0  0  0  0  0  0  0  0  0  0  0  0
  -20.4262   13.0643   27.1232 N   0  0  0  0  0  0  0  0  0  0  0  0
  -21.2889   12.1996   27.9032 C   0  0  0  0  0  0  0  0  0  0  0  0
  -21.2603   11.2078   27.4383 H   0  0  0  0  0  0  0  0  0  0  0  0
  -20.8501   12.1279   28.9039 H   0  0  0  0  0  0  0  0  0  0  0  0
  -22.7106   12.7353   27.9770 C   0  0  0  0  0  0  0  0  0  0  0  0
  -22.7202   13.8205   28.1327 H   0  0  0  0  0  0  0  0  0  0  0  0
  -23.2343   12.2529   28.8096 H   0  0  0  0  0  0  0  0  0  0  0  0
  -23.3965   12.4115   26.7643 O   0  0  0  0  0  0  0  0  0  0  0  0
  -24.7702   12.7720   26.8244 C   0  0  0  0  0  0  0  0  0  0  0  0
  -25.2420   12.4892   25.8799 H   0  0  0  0  0  0  0  0  0  0  0  0
  -24.8761   13.8524   26.9585 H   0  0  0  0  0  0  0  0  0  0  0  0
  -25.2705   12.2402   27.6392 H   0  0  0  0  0  0  0  0  0  0  0  0
  -20.1488   14.3240   27.5618 N   0  0  0  0  0  0  0  0  0  0  0  0
  -19.3512   14.8232   26.6524 C   0  0  0  0  0  0  0  0  0  0  0  0
  -18.9497   15.8026   26.7015 H   0  0  0  0  0  0  0  0  0  0  0  0
  1  2  1  0
  2  3  2  0
  2 18  1  0
  3  4  1  0
  3  5  1  0
  5  6  1  0
  5 17  1  0
  6  7  1  0
  6  8  1  0
  6  9  1  0
  9 10  1  0
  9 11  1  0
  9 12  1  0
 12 13  1  0
 13 14  1  0
 13 15  1  0
 13 16  1  0
 17 18  2  0
 18 19  1  0
M  END
$$$$
