
     RDKit          3D

 29 30  0  0  0  0  0  0  0  0999 V2000
  -25.7214   15.2086   27.0126 O   0  0  0  0  0  0  0  0  0  0  0  0
  -25.2292   15.1187   28.1222 C   0  0  0  0  0  0  0  0  0  0  0  0
  -24.8670   16.2105   28.7666 N   0  0  0  0  0  0  0  0  0  0  0  0
  -25.0000   17.0831   28.2807 H   0  0  0  0  0  0  0  0  0  0  0  0
  -24.4177   16.1748   29.6645 H   0  0  0  0  0  0  0  0  0  0  0  0
  -24.9602   13.8133   28.8247 C   0  0  0  0  0  0  0  0  0  0  0  0
  -25.4380   13.8834   29.8097 H   0  0  0  0  0  0  0  0  0  0  0  0
  -25.4408   12.9970   28.2753 H   0  0  0  0  0  0  0  0  0  0  0  0
  -23.4713   13.5504   29.0064 C   0  0  0  0  0  0  0  0  0  0  0  0
  -23.0463   14.3220   29.6594 H   0  0  0  0  0  0  0  0  0  0  0  0
  -22.9146   13.6082   28.0660 H   0  0  0  0  0  0  0  0  0  0  0  0
  -23.2067   12.2509   29.6516 N   0  0  0  0  0  0  0  0  0  0  0  0
  -22.9871   11.1038   29.0182 C   0  0  0  0  0  0  0  0  0  0  0  0
  -22.9721   10.8702   27.5474 C   0  0  0  0  0  0  0  0  0  0  0  0
  -22.7317    9.8196   27.3771 H   0  0  0  0  0  0  0  0  0  0  0  0
  -22.2102   11.5169   27.1145 H   0  0  0  0  0  0  0  0  0  0  0  0
  -23.9679   11.1062   27.1696 H   0  0  0  0  0  0  0  0  0  0  0  0
  -22.7827   10.1729   29.9227 N   0  0  0  0  0  0  0  0  0  0  0  0
  -22.5891    9.1848   29.6918 H   0  0  0  0  0  0  0  0  0  0  0  0
  -22.8995   10.6819   31.1899 C   0  0  0  0  0  0  0  0  0  0  0  0
  -23.1837   12.0177   31.0353 C   0  0  0  0  0  0  0  0  0  0  0  0
  -23.3947   12.8471   32.1417 C   0  0  0  0  0  0  0  0  0  0  0  0
  -23.6302   13.8728   32.0261 H   0  0  0  0  0  0  0  0  0  0  0  0
  -23.2865   12.2745   33.4047 C   0  0  0  0  0  0  0  0  0  0  0  0
  -23.4357   12.8730   34.2695 H   0  0  0  0  0  0  0  0  0  0  0  0
  -22.9819   10.8989   33.5580 C   0  0  0  0  0  0  0  0  0  0  0  0
  -22.9050   10.4907   34.5357 H   0  0  0  0  0  0  0  0  0  0  0  0
  -22.7854   10.0848   32.4477 C   0  0  0  0  0  0  0  0  0  0  0  0
  -22.5625    9.0538   32.5493 H   0  0  0  0  0  0  0  0  0  0  0  0
  1  2  2  0
  2  3  1  0
  2  6  1  0
  3  4  1  0
  3  5  1  0
  6  7  1  0
  6  8  1  0
  6  9  1  0
  9 10  1  0
  9 11  1  0
  9 12  1  0
 12 13  2  0
 12 21  1  0
 13 14  1  0
 13 18  1  0
 14 15  1  0
 14 16  1  0
 14 17  1  0
 18 19  1  0
 18 20  1  0
 20 21  1  0
 20 28  2  0
 21 22  2  0
 22 23  1  0
 22 24  1  0
 24 25  1  0
 24 26  2  0
 26 27  1  0
 26 28  1  0
 28 29  1  0
M  END
$$$$
