
     RDKit          3D

 27 28  0  0  0  0  0  0  0  0999 V2000
  -19.5793   18.6816   26.0100 F   0  0  0  0  0  0  0  0  0  0  0  0
  -18.3249   18.6657   26.4908 C   0  0  0  0  0  0  0  0  0  0  0  0
  -17.6620   17.4418   26.6525 C   0  0  0  0  0  0  0  0  0  0  0  0
  -18.3339   16.2773   26.3072 N   0  0  0  0  0  0  0  0  0  0  0  0
  -19.3305   16.3569   26.1272 H   0  0  0  0  0  0  0  0  0  0  0  0
  -17.7328   14.9648   26.1803 C   0  0  0  0  0  0  0  0  0  0  0  0
  -16.7713   15.0515   25.6584 H   0  0  0  0  0  0  0  0  0  0  0  0
  -17.5175   14.5700   27.1816 H   0  0  0  0  0  0  0  0  0  0  0  0
  -18.5690   13.9648   25.4408 C   0  0  0  0  0  0  0  0  0  0  0  0
  -19.3731   13.0117   25.9743 C   0  0  0  0  0  0  0  0  0  0  0  0
  -19.6900   12.6381   27.3724 C   0  0  0  0  0  0  0  0  0  0  0  0
  -19.7235   13.5232   28.0142 H   0  0  0  0  0  0  0  0  0  0  0  0
  -18.9265   11.9586   27.7643 H   0  0  0  0  0  0  0  0  0  0  0  0
  -20.6625   12.1391   27.4412 H   0  0  0  0  0  0  0  0  0  0  0  0
  -19.9019   12.3610   24.9107 N   0  0  0  0  0  0  0  0  0  0  0  0
  -20.5641   11.5647   24.9709 H   0  0  0  0  0  0  0  0  0  0  0  0
  -19.4680   12.8630   23.7277 N   0  0  0  0  0  0  0  0  0  0  0  0
  -18.6592   13.8301   24.0590 C   0  0  0  0  0  0  0  0  0  0  0  0
  -18.1440   14.4226   23.3464 H   0  0  0  0  0  0  0  0  0  0  0  0
  -16.3581   17.4412   27.1572 C   0  0  0  0  0  0  0  0  0  0  0  0
  -15.8482   16.5264   27.3076 H   0  0  0  0  0  0  0  0  0  0  0  0
  -15.7415   18.6512   27.4770 C   0  0  0  0  0  0  0  0  0  0  0  0
  -14.7532   18.6515   27.8609 H   0  0  0  0  0  0  0  0  0  0  0  0
  -16.4140   19.8639   27.3042 C   0  0  0  0  0  0  0  0  0  0  0  0
  -15.9356   20.7758   27.5532 H   0  0  0  0  0  0  0  0  0  0  0  0
  -17.7178   19.8715   26.8084 C   0  0  0  0  0  0  0  0  0  0  0  0
  -18.2418   20.7834   26.6756 H   0  0  0  0  0  0  0  0  0  0  0  0
  1  2  1  0
  2  3  1  0
  2 26  2  0
  3  4  1  0
  3 20  2  0
  4  5  1  0
  4  6  1  0
  6  7  1  0
  6  8  1  0
  6  9  1  0
  9 10  2  0
  9 18  1  0
 10 11  1  0
 10 15  1  0
 11 12  1  0
 11 13  1  0
 11 14  1  0
 15 16  1  0
 15 17  1  0
 17 18  2  0
 18 19  1  0
 20 21  1  0
 20 22  1  0
 22 23  1  0
 22 24  2  0
 24 25  1  0
 24 26  1  0
 26 27  1  0
M  END
$$$$
