
     RDKit          3D

 29 30  0  0  0  0  0  0  0  0999 V2000
  -18.7011   12.8285   25.0100 C   0  0  0  0  0  0  0  0  0  0  0  0
  -18.4348   13.8480   25.3101 H   0  0  0  0  0  0  0  0  0  0  0  0
  -19.5330   12.8864   24.2978 H   0  0  0  0  0  0  0  0  0  0  0  0
  -17.8542   12.3931   24.4682 H   0  0  0  0  0  0  0  0  0  0  0  0
  -19.0672   11.9676   26.2146 C   0  0  0  0  0  0  0  0  0  0  0  0
  -19.3791   10.6504   25.7597 O   0  0  0  0  0  0  0  0  0  0  0  0
  -20.1482   10.7213   25.1716 H   0  0  0  0  0  0  0  0  0  0  0  0
  -20.2019   12.5542   26.9932 C   0  0  0  0  0  0  0  0  0  0  0  0
  -20.2715   13.8460   27.5040 C   0  0  0  0  0  0  0  0  0  0  0  0
  -19.5216   14.5882   27.4127 H   0  0  0  0  0  0  0  0  0  0  0  0
  -21.3988   14.0494   28.1275 N   0  0  0  0  0  0  0  0  0  0  0  0
  -22.0784   12.8709   28.0225 N   0  0  0  0  0  0  0  0  0  0  0  0
  -23.3900   12.7105   28.6035 C   0  0  0  0  0  0  0  0  0  0  0  0
  -23.4781   11.6650   28.9271 H   0  0  0  0  0  0  0  0  0  0  0  0
  -23.6697   13.6241   29.7952 C   0  0  0  0  0  0  0  0  0  0  0  0
  -23.1505   13.2965   30.7020 H   0  0  0  0  0  0  0  0  0  0  0  0
  -23.3574   14.6563   29.5934 H   0  0  0  0  0  0  0  0  0  0  0  0
  -25.1862   13.5719   29.9515 C   0  0  0  0  0  0  0  0  0  0  0  0
  -25.4667   12.8076   30.6855 H   0  0  0  0  0  0  0  0  0  0  0  0
  -25.5826   14.5279   30.3079 H   0  0  0  0  0  0  0  0  0  0  0  0
  -25.7457   13.1993   28.5780 C   0  0  0  0  0  0  0  0  0  0  0  0
  -26.4361   13.9599   28.2000 H   0  0  0  0  0  0  0  0  0  0  0  0
  -26.3036   12.2576   28.6478 H   0  0  0  0  0  0  0  0  0  0  0  0
  -24.5426   13.0354   27.6550 C   0  0  0  0  0  0  0  0  0  0  0  0
  -24.3651   13.9727   27.1127 H   0  0  0  0  0  0  0  0  0  0  0  0
  -24.7004   12.2502   26.9082 H   0  0  0  0  0  0  0  0  0  0  0  0
  -21.3661   11.9541   27.3344 C   0  0  0  0  0  0  0  0  0  0  0  0
  -21.7216   10.9740   27.1461 H   0  0  0  0  0  0  0  0  0  0  0  0
  -18.1930   11.8777   26.8708 H   0  0  0  0  0  0  0  0  0  0  0  0
  1  2  1  0
  1  3  1  0
  1  4  1  0
  1  5  1  0
  5  6  1  0
  5  8  1  0
  5 29  1  0
  6  7  1  0
  8  9  1  0
  8 27  2  0
  9 10  1  0
  9 11  2  0
 11 12  1  0
 12 13  1  0
 12 27  1  0
 13 14  1  0
 13 15  1  0
 13 24  1  0
 15 16  1  0
 15 17  1  0
 15 18  1  0
 18 19  1  0
 18 20  1  0
 18 21  1  0
 21 22  1  0
 21 23  1  0
 21 24  1  0
 24 25  1  0
 24 26  1  0
 27 28  1  0
M  END
$$$$
