
     RDKit          3D

 31 32  0  0  0  0  0  0  0  0999 V2000
  -19.4881   16.0421   25.8793 O   0  0  0  0  0  0  0  0  0  0  0  0
  -18.3799   15.7253   26.2915 C   0  0  0  0  0  0  0  0  0  0  0  0
  -18.0576   14.4023   26.2334 N   0  0  0  0  0  0  0  0  0  0  0  0
  -17.1101   14.0883   26.4744 H   0  0  0  0  0  0  0  0  0  0  0  0
  -19.0072   13.3968   25.8010 C   0  0  0  0  0  0  0  0  0  0  0  0
  -18.4502   12.5425   25.3990 H   0  0  0  0  0  0  0  0  0  0  0  0
  -19.6161   13.8139   24.9910 H   0  0  0  0  0  0  0  0  0  0  0  0
  -19.8475   12.9895   26.9583 C   0  0  0  0  0  0  0  0  0  0  0  0
  -21.1980   13.0343   27.0439 C   0  0  0  0  0  0  0  0  0  0  0  0
  -21.9377   13.3420   26.3531 H   0  0  0  0  0  0  0  0  0  0  0  0
  -21.5063   12.5776   28.2782 N   0  0  0  0  0  0  0  0  0  0  0  0
  -22.8176   12.4263   28.8727 C   0  0  0  0  0  0  0  0  0  0  0  0
  -23.0500   13.3529   29.4091 H   0  0  0  0  0  0  0  0  0  0  0  0
  -23.5405   12.3207   28.0569 H   0  0  0  0  0  0  0  0  0  0  0  0
  -22.8883   11.2383   29.8150 C   0  0  0  0  0  0  0  0  0  0  0  0
  -22.1628   11.3386   30.6296 H   0  0  0  0  0  0  0  0  0  0  0  0
  -22.6711   10.3027   29.2893 H   0  0  0  0  0  0  0  0  0  0  0  0
  -23.8876   11.1597   30.2535 H   0  0  0  0  0  0  0  0  0  0  0  0
  -20.3945   12.2413   28.9798 N   0  0  0  0  0  0  0  0  0  0  0  0
  -19.3981   12.4958   28.1768 C   0  0  0  0  0  0  0  0  0  0  0  0
  -18.3841   12.3321   28.4421 H   0  0  0  0  0  0  0  0  0  0  0  0
  -17.3973   16.7074   26.7887 C   0  0  0  0  0  0  0  0  0  0  0  0
  -16.4298   16.2676   27.7010 C   0  0  0  0  0  0  0  0  0  0  0  0
  -16.4256   15.2528   28.0142 H   0  0  0  0  0  0  0  0  0  0  0  0
  -15.5003   17.0811   28.2062 N   0  0  0  0  0  0  0  0  0  0  0  0
  -15.4710   18.3601   27.8373 C   0  0  0  0  0  0  0  0  0  0  0  0
  -14.7200   18.9818   28.2563 H   0  0  0  0  0  0  0  0  0  0  0  0
  -16.3898   18.8783   26.9286 C   0  0  0  0  0  0  0  0  0  0  0  0
  -16.3382   19.8982   26.6498 H   0  0  0  0  0  0  0  0  0  0  0  0
  -17.3669   18.0501   26.3913 C   0  0  0  0  0  0  0  0  0  0  0  0
  -18.0626   18.4344   25.6917 H   0  0  0  0  0  0  0  0  0  0  0  0
  1  2  2  0
  2  3  1  0
  2 22  1  0
  3  4  1  0
  3  5  1  0
  5  6  1  0
  5  7  1  0
  5  8  1  0
  8  9  2  0
  8 20  1  0
  9 10  1  0
  9 11  1  0
 11 12  1  0
 11 19  1  0
 12 13  1  0
 12 14  1  0
 12 15  1  0
 15 16  1  0
 15 17  1  0
 15 18  1  0
 19 20  2  0
 20 21  1  0
 22 23  1  0
 22 30  2  0
 23 24  1  0
 23 25  2  0
 25 26  1  0
 26 27  1  0
 26 28  2  0
 28 29  1  0
 28 30  1  0
 30 31  1  0
M  END
$$$$
