
     RDKit          3D

 18 18  0  0  0  0  0  0  0  0999 V2000
  -20.1029   14.5452   27.6014 O   0  0  0  0  0  0  0  0  0  0  0  0
  -20.1582   13.6778   26.7314 C   0  0  0  0  0  0  0  0  0  0  0  0
  -21.0314   12.6437   26.9309 N   0  0  0  0  0  0  0  0  0  0  0  0
  -21.1133   11.9572   26.1676 H   0  0  0  0  0  0  0  0  0  0  0  0
  -21.8348   12.4959   28.1261 C   0  0  0  0  0  0  0  0  0  0  0  0
  -21.1720   12.2231   28.9548 H   0  0  0  0  0  0  0  0  0  0  0  0
  -22.2798   13.4693   28.3560 H   0  0  0  0  0  0  0  0  0  0  0  0
  -22.9159   11.4481   27.9474 C   0  0  0  0  0  0  0  0  0  0  0  0
  -23.5110   11.3534   28.8606 H   0  0  0  0  0  0  0  0  0  0  0  0
  -23.5878   11.7156   27.1252 H   0  0  0  0  0  0  0  0  0  0  0  0
  -22.4786   10.4709   27.7174 H   0  0  0  0  0  0  0  0  0  0  0  0
  -19.4047   13.6605   25.5019 C   0  0  0  0  0  0  0  0  0  0  0  0
  -18.6885   14.7289   25.0453 N   0  0  0  0  0  0  0  0  0  0  0  0
  -18.1320   14.3775   23.9133 N   0  0  0  0  0  0  0  0  0  0  0  0
  -18.4877   13.1096   23.6575 N   0  0  0  0  0  0  0  0  0  0  0  0
  -18.1747   12.5933   22.8142 H   0  0  0  0  0  0  0  0  0  0  0  0
  -19.2718   12.6408   24.6181 C   0  0  0  0  0  0  0  0  0  0  0  0
  -19.6683   11.6584   24.6184 H   0  0  0  0  0  0  0  0  0  0  0  0
  1  2  2  0
  2  3  1  0
  2 12  1  0
  3  4  1  0
  3  5  1  0
  5  6  1  0
  5  7  1  0
  5  8  1  0
  8  9  1  0
  8 10  1  0
  8 11  1  0
 12 13  1  0
 12 17  2  0
 13 14  2  0
 14 15  1  0
 15 16  1  0
 15 17  1  0
 17 18  1  0
M  END
$$$$
