
     RDKit          3D

 18 18  0  0  0  0  0  0  0  0999 V2000
  -23.5897   11.3646   29.6566 O   0  0  0  0  0  0  0  0  0  0  0  0
  -24.4270   12.2031   29.3569 C   0  0  0  0  0  0  0  0  0  0  0  0
  -25.0610   12.8808   30.3504 N   0  0  0  0  0  0  0  0  0  0  0  0
  -25.7032   13.6361   30.0884 H   0  0  0  0  0  0  0  0  0  0  0  0
  -24.8416   12.6015   31.7557 C   0  0  0  0  0  0  0  0  0  0  0  0
  -25.6365   13.0858   32.3339 H   0  0  0  0  0  0  0  0  0  0  0  0
  -24.9301   11.5196   31.9011 H   0  0  0  0  0  0  0  0  0  0  0  0
  -23.4822   13.0872   32.2183 C   0  0  0  0  0  0  0  0  0  0  0  0
  -23.3842   14.1686   32.0763 H   0  0  0  0  0  0  0  0  0  0  0  0
  -22.6794   12.6021   31.6530 H   0  0  0  0  0  0  0  0  0  0  0  0
  -23.3372   12.8651   33.2798 H   0  0  0  0  0  0  0  0  0  0  0  0
  -24.7601   12.5315   28.0016 C   0  0  0  0  0  0  0  0  0  0  0  0
  -24.4208   11.7452   26.9810 N   0  0  0  0  0  0  0  0  0  0  0  0
  -23.8996   10.8497   27.0601 H   0  0  0  0  0  0  0  0  0  0  0  0
  -24.8412   12.2627   25.8228 N   0  0  0  0  0  0  0  0  0  0  0  0
  -25.4610   13.3937   26.0941 N   0  0  0  0  0  0  0  0  0  0  0  0
  -25.4165   13.5636   27.4240 C   0  0  0  0  0  0  0  0  0  0  0  0
  -25.8440   14.3971   27.9203 H   0  0  0  0  0  0  0  0  0  0  0  0
  1  2  2  0
  2  3  1  0
  2 12  1  0
  3  4  1  0
  3  5  1  0
  5  6  1  0
  5  7  1  0
  5  8  1  0
  8  9  1  0
  8 10  1  0
  8 11  1  0
 12 13  1  0
 12 17  2  0
 13 14  1  0
 13 15  1  0
 15 16  2  0
 16 17  1  0
 17 18  1  0
M  END
$$$$
