
     RDKit          3D

 35 37  0  0  0  0  0  0  0  0999 V2000
  -17.8355   12.1148   25.6103 F   0  0  0  0  0  0  0  0  0  0  0  0
  -19.0182   12.1649   26.2394 C   0  0  0  0  0  0  0  0  0  0  0  0
  -19.8341   11.0405   26.2254 C   0  0  0  0  0  0  0  0  0  0  0  0
  -19.5195   10.1624   25.7244 H   0  0  0  0  0  0  0  0  0  0  0  0
  -21.0629   11.0913   26.8770 C   0  0  0  0  0  0  0  0  0  0  0  0
  -21.6847   10.2393   26.8685 H   0  0  0  0  0  0  0  0  0  0  0  0
  -21.4653   12.2720   27.5268 C   0  0  0  0  0  0  0  0  0  0  0  0
  -22.6982   12.3342   28.1639 N   0  0  0  0  0  0  0  0  0  0  0  0
  -23.8592   13.0220   27.5792 C   0  0  0  0  0  0  0  0  0  0  0  0
  -23.6266   13.5480   26.6479 H   0  0  0  0  0  0  0  0  0  0  0  0
  -24.6095   12.2628   27.3257 H   0  0  0  0  0  0  0  0  0  0  0  0
  -24.4624   14.0082   28.5922 C   0  0  0  0  0  0  0  0  0  0  0  0
  -25.3686   14.4549   28.1766 H   0  0  0  0  0  0  0  0  0  0  0  0
  -23.7556   14.8226   28.7889 H   0  0  0  0  0  0  0  0  0  0  0  0
  -24.7238   13.3498   29.8794 N   0  0  0  0  0  0  0  0  0  0  0  0
  -25.9361   13.3455   30.5281 C   0  0  0  0  0  0  0  0  0  0  0  0
  -26.0252   12.7735   31.5990 O   0  0  0  0  0  0  0  0  0  0  0  0
  -27.0946   14.0349   29.9171 C   0  0  0  0  0  0  0  0  0  0  0  0
  -27.5716   13.4739   29.1192 H   0  0  0  0  0  0  0  0  0  0  0  0
  -27.0694   15.5351   29.7259 C   0  0  0  0  0  0  0  0  0  0  0  0
  -26.1980   16.0823   30.0678 H   0  0  0  0  0  0  0  0  0  0  0  0
  -27.5207   15.9379   28.8274 H   0  0  0  0  0  0  0  0  0  0  0  0
  -27.9711   14.9325   30.7596 C   0  0  0  0  0  0  0  0  0  0  0  0
  -27.7104   15.0836   31.8014 H   0  0  0  0  0  0  0  0  0  0  0  0
  -29.0367   14.9290   30.5638 H   0  0  0  0  0  0  0  0  0  0  0  0
  -23.5541   12.6726   30.4534 C   0  0  0  0  0  0  0  0  0  0  0  0
  -22.8279   13.4546   30.7032 H   0  0  0  0  0  0  0  0  0  0  0  0
  -23.8068   12.1514   31.3822 H   0  0  0  0  0  0  0  0  0  0  0  0
  -22.9310   11.6765   29.4598 C   0  0  0  0  0  0  0  0  0  0  0  0
  -23.6069   10.8268   29.3078 H   0  0  0  0  0  0  0  0  0  0  0  0
  -22.0073   11.2933   29.9073 H   0  0  0  0  0  0  0  0  0  0  0  0
  -20.6106   13.3864   27.5432 C   0  0  0  0  0  0  0  0  0  0  0  0
  -20.8875   14.2608   28.0700 H   0  0  0  0  0  0  0  0  0  0  0  0
  -19.3834   13.3358   26.8889 C   0  0  0  0  0  0  0  0  0  0  0  0
  -18.7310   14.1689   26.8906 H   0  0  0  0  0  0  0  0  0  0  0  0
  1  2  1  0
  2  3  1  0
  2 34  2  0
  3  4  1  0
  3  5  2  0
  5  6  1  0
  5  7  1  0
  7  8  1  0
  7 32  2  0
  8  9  1  0
  8 29  1  0
  9 10  1  0
  9 11  1  0
  9 12  1  0
 12 13  1  0
 12 14  1  0
 12 15  1  0
 15 16  1  0
 15 26  1  0
 16 17  2  0
 16 18  1  0
 18 19  1  0
 18 20  1  0
 18 23  1  0
 20 21  1  0
 20 22  1  0
 20 23  1  0
 23 24  1  0
 23 25  1  0
 26 27  1  0
 26 28  1  0
 26 29  1  0
 29 30  1  0
 29 31  1  0
 32 33  1  0
 32 34  1  0
 34 35  1  0
M  END
$$$$
