
     RDKit          3D

 26 27  0  0  0  0  0  0  0  0999 V2000
  -23.9803   12.3560   26.1982 O   0  0  0  0  0  0  0  0  0  0  0  0
  -24.0769   13.0134   27.2423 C   0  0  0  0  0  0  0  0  0  0  0  0
  -23.0247   13.0015   28.1678 N   0  0  0  0  0  0  0  0  0  0  0  0
  -21.8030   12.2461   27.9027 C   0  0  0  0  0  0  0  0  0  0  0  0
  -21.4277   11.8458   28.8520 H   0  0  0  0  0  0  0  0  0  0  0  0
  -22.0285   11.3931   27.2534 H   0  0  0  0  0  0  0  0  0  0  0  0
  -20.7903   13.1270   27.2799 C   0  0  0  0  0  0  0  0  0  0  0  0
  -20.5397   14.2940   27.8777 O   0  0  0  0  0  0  0  0  0  0  0  0
  -19.6152   14.9761   27.1891 N   0  0  0  0  0  0  0  0  0  0  0  0
  -19.2868   14.2535   26.1744 C   0  0  0  0  0  0  0  0  0  0  0  0
  -18.2747   14.7138   25.2016 C   0  0  0  0  0  0  0  0  0  0  0  0
  -18.2673   14.0778   24.3101 H   0  0  0  0  0  0  0  0  0  0  0  0
  -17.2744   14.6828   25.6466 H   0  0  0  0  0  0  0  0  0  0  0  0
  -18.4787   15.7402   24.8796 H   0  0  0  0  0  0  0  0  0  0  0  0
  -20.0115   13.0705   26.1887 C   0  0  0  0  0  0  0  0  0  0  0  0
  -19.9666   12.2808   25.4845 H   0  0  0  0  0  0  0  0  0  0  0  0
  -23.0659   13.6922   29.3620 N   0  0  0  0  0  0  0  0  0  0  0  0
  -24.1101   14.3960   29.6705 C   0  0  0  0  0  0  0  0  0  0  0  0
  -24.1341   15.1376   30.9770 C   0  0  0  0  0  0  0  0  0  0  0  0
  -23.2637   15.7991   31.0335 H   0  0  0  0  0  0  0  0  0  0  0  0
  -24.0875   14.4176   31.8000 H   0  0  0  0  0  0  0  0  0  0  0  0
  -25.0412   15.7377   31.0822 H   0  0  0  0  0  0  0  0  0  0  0  0
  -25.2273   14.4728   28.7889 C   0  0  0  0  0  0  0  0  0  0  0  0
  -26.0647   15.0591   29.0677 H   0  0  0  0  0  0  0  0  0  0  0  0
  -25.2124   13.8002   27.6022 C   0  0  0  0  0  0  0  0  0  0  0  0
  -26.0254   13.8368   26.9262 H   0  0  0  0  0  0  0  0  0  0  0  0
  1  2  2  0
  2  3  1  0
  2 25  1  0
  3  4  1  0
  3 17  1  0
  4  5  1  0
  4  6  1  0
  4  7  1  0
  7  8  1  0
  7 15  2  0
  8  9  1  0
  9 10  2  0
 10 11  1  0
 10 15  1  0
 11 12  1  0
 11 13  1  0
 11 14  1  0
 15 16  1  0
 17 18  2  0
 18 19  1  0
 18 23  1  0
 19 20  1  0
 19 21  1  0
 19 22  1  0
 23 24  1  0
 23 25  2  0
 25 26  1  0
M  END
$$$$
