
     RDKit          3D

 19 19  0  0  0  0  0  0  0  0999 V2000
  -25.9261   14.7942   26.9236 O   0  0  0  0  0  0  0  0  0  0  0  0
  -25.7089   14.0278   27.8593 C   0  0  0  0  0  0  0  0  0  0  0  0
  -26.3713   14.2981   29.0552 N   0  0  0  0  0  0  0  0  0  0  0  0
  -27.0083   15.5925   29.2556 C   0  0  0  0  0  0  0  0  0  0  0  0
  -26.7001   15.9910   30.2276 H   0  0  0  0  0  0  0  0  0  0  0  0
  -28.0930   15.4526   29.2459 H   0  0  0  0  0  0  0  0  0  0  0  0
  -26.7352   16.3152   28.4829 H   0  0  0  0  0  0  0  0  0  0  0  0
  -26.5128   13.3513   30.1536 C   0  0  0  0  0  0  0  0  0  0  0  0
  -27.5308   13.4138   30.5519 H   0  0  0  0  0  0  0  0  0  0  0  0
  -25.8009   13.6190   30.9396 H   0  0  0  0  0  0  0  0  0  0  0  0
  -26.3437   12.3230   29.8276 H   0  0  0  0  0  0  0  0  0  0  0  0
  -24.8151   12.8905   27.7377 C   0  0  0  0  0  0  0  0  0  0  0  0
  -23.9280   12.5057   28.6983 C   0  0  0  0  0  0  0  0  0  0  0  0
  -23.6973   12.9232   29.6438 H   0  0  0  0  0  0  0  0  0  0  0  0
  -23.3275   11.3995   28.2282 N   0  0  0  0  0  0  0  0  0  0  0  0
  -22.5945   10.8624   28.7292 H   0  0  0  0  0  0  0  0  0  0  0  0
  -23.7961   11.0452   27.0006 N   0  0  0  0  0  0  0  0  0  0  0  0
  -24.6969   11.9430   26.7185 C   0  0  0  0  0  0  0  0  0  0  0  0
  -25.2632   11.9291   25.8206 H   0  0  0  0  0  0  0  0  0  0  0  0
  1  2  2  0
  2  3  1  0
  2 12  1  0
  3  4  1  0
  3  8  1  0
  4  5  1  0
  4  6  1  0
  4  7  1  0
  8  9  1  0
  8 10  1  0
  8 11  1  0
 12 13  2  0
 12 18  1  0
 13 14  1  0
 13 15  1  0
 15 16  1  0
 15 17  1  0
 17 18  2  0
 18 19  1  0
M  END
$$$$
