
     RDKit          3D

 23 24  0  0  0  0  0  0  0  0999 V2000
  -18.7411   13.3169   26.0720 N   0  0  0  0  0  0  0  0  0  0  0  0
  -19.4046   12.9276   25.3849 H   0  0  0  0  0  0  0  0  0  0  0  0
  -17.8243   13.2329   25.6104 H   0  0  0  0  0  0  0  0  0  0  0  0
  -19.0466   14.7758   26.2336 C   0  0  0  0  0  0  0  0  0  0  0  0
  -19.3425   15.1482   25.2485 H   0  0  0  0  0  0  0  0  0  0  0  0
  -19.8901   14.8470   26.9288 H   0  0  0  0  0  0  0  0  0  0  0  0
  -17.8697   15.5102   26.7509 C   0  0  0  0  0  0  0  0  0  0  0  0
  -17.7334   16.8424   26.7807 N   0  0  0  0  0  0  0  0  0  0  0  0
  -16.5191   17.0933   27.3217 C   0  0  0  0  0  0  0  0  0  0  0  0
  -15.9438   15.9494   27.6138 N   0  0  0  0  0  0  0  0  0  0  0  0
  -16.8019   14.9608   27.2547 N   0  0  0  0  0  0  0  0  0  0  0  0
  -16.1005   18.4491   27.4739 C   0  0  0  0  0  0  0  0  0  0  0  0
  -15.1487   18.6470   27.8957 H   0  0  0  0  0  0  0  0  0  0  0  0
  -16.9241   19.4631   27.0766 C   0  0  0  0  0  0  0  0  0  0  0  0
  -16.6268   20.4762   27.1826 H   0  0  0  0  0  0  0  0  0  0  0  0
  -18.2024   19.1591   26.5116 C   0  0  0  0  0  0  0  0  0  0  0  0
  -18.8311   19.9600   26.2097 H   0  0  0  0  0  0  0  0  0  0  0  0
  -18.6073   17.8615   26.3628 C   0  0  0  0  0  0  0  0  0  0  0  0
  -19.5335   17.5496   25.9563 H   0  0  0  0  0  0  0  0  0  0  0  0
  -18.7669   12.5205   27.3212 C   0  0  0  0  0  0  0  0  0  0  0  0
  -19.7680   12.5880   27.7520 H   0  0  0  0  0  0  0  0  0  0  0  0
  -18.0132   12.9240   28.0012 H   0  0  0  0  0  0  0  0  0  0  0  0
  -18.5307   11.4871   27.0571 H   0  0  0  0  0  0  0  0  0  0  0  0
  1  2  1  0
  1  3  1  0
  1  4  1  0
  1 20  1  0
  4  5  1  0
  4  6  1  0
  4  7  1  0
  7  8  1  0
  7 11  2  0
  8  9  1  0
  8 18  1  0
  9 10  2  0
  9 12  1  0
 10 11  1  0
 12 13  1  0
 12 14  2  0
 14 15  1  0
 14 16  1  0
 16 17  1  0
 16 18  2  0
 18 19  1  0
 20 21  1  0
 20 22  1  0
 20 23  1  0
M  END
$$$$
