
     RDKit          3D

 24 25  0  0  0  0  0  0  0  0999 V2000
  -17.5764   13.9416   27.9323 F   0  0  0  0  0  0  0  0  0  0  0  0
  -18.1405   13.5006   26.7990 C   0  0  0  0  0  0  0  0  0  0  0  0
  -18.0638   14.2371   25.6026 C   0  0  0  0  0  0  0  0  0  0  0  0
  -17.4577   15.4807   25.4770 N   0  0  0  0  0  0  0  0  0  0  0  0
  -17.5161   15.9340   24.5714 H   0  0  0  0  0  0  0  0  0  0  0  0
  -16.7360   16.2305   26.4868 C   0  0  0  0  0  0  0  0  0  0  0  0
  -17.3464   16.5247   27.3416 H   0  0  0  0  0  0  0  0  0  0  0  0
  -15.9485   15.5803   26.8866 H   0  0  0  0  0  0  0  0  0  0  0  0
  -16.1167   17.4629   25.9333 C   0  0  0  0  0  0  0  0  0  0  0  0
  -16.8347   18.5939   25.7465 N   0  0  0  0  0  0  0  0  0  0  0  0
  -17.8510   18.6853   25.9456 H   0  0  0  0  0  0  0  0  0  0  0  0
  -16.0810   19.6051   25.2413 N   0  0  0  0  0  0  0  0  0  0  0  0
  -14.8852   19.0967   25.1152 C   0  0  0  0  0  0  0  0  0  0  0  0
  -14.0567   19.6429   24.7409 H   0  0  0  0  0  0  0  0  0  0  0  0
  -14.8629   17.7713   25.5324 C   0  0  0  0  0  0  0  0  0  0  0  0
  -14.0205   17.1270   25.5345 H   0  0  0  0  0  0  0  0  0  0  0  0
  -18.6408   13.7016   24.4490 C   0  0  0  0  0  0  0  0  0  0  0  0
  -18.5774   14.2298   23.5326 H   0  0  0  0  0  0  0  0  0  0  0  0
  -19.3040   12.4773   24.5069 C   0  0  0  0  0  0  0  0  0  0  0  0
  -19.7455   12.0772   23.6283 H   0  0  0  0  0  0  0  0  0  0  0  0
  -19.3897   11.7685   25.7066 C   0  0  0  0  0  0  0  0  0  0  0  0
  -19.8956   10.8370   25.7366 H   0  0  0  0  0  0  0  0  0  0  0  0
  -18.7998   12.2811   26.8604 C   0  0  0  0  0  0  0  0  0  0  0  0
  -18.8466   11.7477   27.7749 H   0  0  0  0  0  0  0  0  0  0  0  0
  1  2  1  0
  2  3  1  0
  2 23  2  0
  3  4  1  0
  3 17  2  0
  4  5  1  0
  4  6  1  0
  6  7  1  0
  6  8  1  0
  6  9  1  0
  9 10  1  0
  9 15  2  0
 10 11  1  0
 10 12  1  0
 12 13  2  0
 13 14  1  0
 13 15  1  0
 15 16  1  0
 17 18  1  0
 17 19  1  0
 19 20  1  0
 19 21  2  0
 21 22  1  0
 21 23  1  0
 23 24  1  0
M  END
$$$$
