
     RDKit          3D

 35 37  0  0  0  0  0  0  0  0999 V2000
  -19.7978   10.8395   25.3805 F   0  0  0  0  0  0  0  0  0  0  0  0
  -19.2844   12.0631   25.5709 C   0  0  0  0  0  0  0  0  0  0  0  0
  -18.6932   12.3605   26.7925 C   0  0  0  0  0  0  0  0  0  0  0  0
  -18.6523   11.6270   27.5551 H   0  0  0  0  0  0  0  0  0  0  0  0
  -18.1609   13.6308   26.9923 C   0  0  0  0  0  0  0  0  0  0  0  0
  -17.7112   13.8598   27.9185 H   0  0  0  0  0  0  0  0  0  0  0  0
  -18.2362   14.5929   25.9691 C   0  0  0  0  0  0  0  0  0  0  0  0
  -17.7223   15.8680   26.1690 N   0  0  0  0  0  0  0  0  0  0  0  0
  -16.2831   16.1277   26.3239 C   0  0  0  0  0  0  0  0  0  0  0  0
  -15.6796   15.2150   26.3556 H   0  0  0  0  0  0  0  0  0  0  0  0
  -15.9448   16.6910   25.4453 H   0  0  0  0  0  0  0  0  0  0  0  0
  -16.0234   16.9624   27.5882 C   0  0  0  0  0  0  0  0  0  0  0  0
  -14.9625   17.2154   27.6511 H   0  0  0  0  0  0  0  0  0  0  0  0
  -16.2748   16.3783   28.4811 H   0  0  0  0  0  0  0  0  0  0  0  0
  -16.8693   18.1634   27.6117 N   0  0  0  0  0  0  0  0  0  0  0  0
  -16.4053   19.4488   27.7626 C   0  0  0  0  0  0  0  0  0  0  0  0
  -17.2085   20.3634   27.7782 O   0  0  0  0  0  0  0  0  0  0  0  0
  -14.9518   19.6892   27.9063 C   0  0  0  0  0  0  0  0  0  0  0  0
  -14.5880   19.5978   28.9252 H   0  0  0  0  0  0  0  0  0  0  0  0
  -14.2731   20.7519   27.0711 C   0  0  0  0  0  0  0  0  0  0  0  0
  -14.8731   21.3063   26.3580 H   0  0  0  0  0  0  0  0  0  0  0  0
  -13.4868   21.3343   27.5355 H   0  0  0  0  0  0  0  0  0  0  0  0
  -14.0077   19.3042   26.7909 C   0  0  0  0  0  0  0  0  0  0  0  0
  -14.4226   18.8857   25.8804 H   0  0  0  0  0  0  0  0  0  0  0  0
  -13.0384   18.9039   27.0629 H   0  0  0  0  0  0  0  0  0  0  0  0
  -18.3039   17.8877   27.4619 C   0  0  0  0  0  0  0  0  0  0  0  0
  -18.6135   17.3332   28.3552 H   0  0  0  0  0  0  0  0  0  0  0  0
  -18.8898   18.8117   27.4305 H   0  0  0  0  0  0  0  0  0  0  0  0
  -18.5928   17.0543   26.2011 C   0  0  0  0  0  0  0  0  0  0  0  0
  -18.4038   17.6549   25.3037 H   0  0  0  0  0  0  0  0  0  0  0  0
  -19.6568   16.7932   26.2109 H   0  0  0  0  0  0  0  0  0  0  0  0
  -18.8202   14.2577   24.7366 C   0  0  0  0  0  0  0  0  0  0  0  0
  -18.8376   14.9620   23.9476 H   0  0  0  0  0  0  0  0  0  0  0  0
  -19.3549   12.9882   24.5387 C   0  0  0  0  0  0  0  0  0  0  0  0
  -19.8006   12.7231   23.6163 H   0  0  0  0  0  0  0  0  0  0  0  0
  1  2  1  0
  2  3  1  0
  2 34  2  0
  3  4  1  0
  3  5  2  0
  5  6  1  0
  5  7  1  0
  7  8  1  0
  7 32  2  0
  8  9  1  0
  8 29  1  0
  9 10  1  0
  9 11  1  0
  9 12  1  0
 12 13  1  0
 12 14  1  0
 12 15  1  0
 15 16  1  0
 15 26  1  0
 16 17  2  0
 16 18  1  0
 18 19  1  0
 18 20  1  0
 18 23  1  0
 20 21  1  0
 20 22  1  0
 20 23  1  0
 23 24  1  0
 23 25  1  0
 26 27  1  0
 26 28  1  0
 26 29  1  0
 29 30  1  0
 29 31  1  0
 32 33  1  0
 32 34  1  0
 34 35  1  0
M  END
$$$$
