
     RDKit          3D

 23 24  0  0  0  0  0  0  0  0999 V2000
  -17.4467   14.8787   25.0561 N   0  0  0  0  0  0  0  0  0  0  0  0
  -17.6049   15.7782   24.5767 H   0  0  0  0  0  0  0  0  0  0  0  0
  -16.4353   14.7143   24.9528 H   0  0  0  0  0  0  0  0  0  0  0  0
  -17.7377   15.0750   26.5138 C   0  0  0  0  0  0  0  0  0  0  0  0
  -18.7986   15.3294   26.5932 H   0  0  0  0  0  0  0  0  0  0  0  0
  -17.5456   14.1157   27.0063 H   0  0  0  0  0  0  0  0  0  0  0  0
  -16.8877   16.1441   27.0852 C   0  0  0  0  0  0  0  0  0  0  0  0
  -17.0703   17.4601   26.9145 N   0  0  0  0  0  0  0  0  0  0  0  0
  -16.0780   18.0781   27.5954 C   0  0  0  0  0  0  0  0  0  0  0  0
  -15.3244   17.1644   28.1630 N   0  0  0  0  0  0  0  0  0  0  0  0
  -15.8434   15.9527   27.8394 N   0  0  0  0  0  0  0  0  0  0  0  0
  -16.0213   19.5040   27.5855 C   0  0  0  0  0  0  0  0  0  0  0  0
  -15.2433   19.9893   28.1169 H   0  0  0  0  0  0  0  0  0  0  0  0
  -16.9608   20.2165   26.8971 C   0  0  0  0  0  0  0  0  0  0  0  0
  -16.9316   21.2771   26.8797 H   0  0  0  0  0  0  0  0  0  0  0  0
  -17.9970   19.5283   26.1913 C   0  0  0  0  0  0  0  0  0  0  0  0
  -18.7207   20.0982   25.6627 H   0  0  0  0  0  0  0  0  0  0  0  0
  -18.0548   18.1621   26.1970 C   0  0  0  0  0  0  0  0  0  0  0  0
  -18.7850   17.5759   25.7037 H   0  0  0  0  0  0  0  0  0  0  0  0
  -18.2171   13.8000   24.3944 C   0  0  0  0  0  0  0  0  0  0  0  0
  -19.2800   14.0363   24.4755 H   0  0  0  0  0  0  0  0  0  0  0  0
  -17.9807   12.8556   24.8899 H   0  0  0  0  0  0  0  0  0  0  0  0
  -17.9085   13.7707   23.3468 H   0  0  0  0  0  0  0  0  0  0  0  0
  1  2  1  0
  1  3  1  0
  1  4  1  0
  1 20  1  0
  4  5  1  0
  4  6  1  0
  4  7  1  0
  7  8  1  0
  7 11  2  0
  8  9  1  0
  8 18  1  0
  9 10  2  0
  9 12  1  0
 10 11  1  0
 12 13  1  0
 12 14  2  0
 14 15  1  0
 14 16  1  0
 16 17  1  0
 16 18  2  0
 18 19  1  0
 20 21  1  0
 20 22  1  0
 20 23  1  0
M  END
$$$$
