
     RDKit          3D

 29 30  0  0  0  0  0  0  0  0999 V2000
  -22.9622    9.9492   28.5791 F   0  0  0  0  0  0  0  0  0  0  0  0
  -22.9204   10.3538   29.8577 C   0  0  0  0  0  0  0  0  0  0  0  0
  -22.9452   11.7197   30.1482 C   0  0  0  0  0  0  0  0  0  0  0  0
  -23.0324   12.7538   29.0542 C   0  0  0  0  0  0  0  0  0  0  0  0
  -22.9082   12.2778   28.0731 H   0  0  0  0  0  0  0  0  0  0  0  0
  -22.1691   13.4257   29.1540 H   0  0  0  0  0  0  0  0  0  0  0  0
  -24.3266   13.5605   29.0703 C   0  0  0  0  0  0  0  0  0  0  0  0
  -24.5064   14.4880   30.2298 C   0  0  0  0  0  0  0  0  0  0  0  0
  -25.4373   14.4192   31.0066 O   0  0  0  0  0  0  0  0  0  0  0  0
  -23.5735   15.4594   30.3851 N   0  0  0  0  0  0  0  0  0  0  0  0
  -22.8403   15.5203   29.6926 H   0  0  0  0  0  0  0  0  0  0  0  0
  -23.5949   16.4069   31.4706 C   0  0  0  0  0  0  0  0  0  0  0  0
  -24.4830   17.0372   31.3766 H   0  0  0  0  0  0  0  0  0  0  0  0
  -23.6271   15.8705   32.4222 H   0  0  0  0  0  0  0  0  0  0  0  0
  -22.6925   17.0211   31.4175 H   0  0  0  0  0  0  0  0  0  0  0  0
  -25.5996   13.0245   28.4085 C   0  0  0  0  0  0  0  0  0  0  0  0
  -26.5581   13.3116   28.8315 H   0  0  0  0  0  0  0  0  0  0  0  0
  -25.6105   12.0370   27.9637 H   0  0  0  0  0  0  0  0  0  0  0  0
  -24.8071   14.0792   27.7131 C   0  0  0  0  0  0  0  0  0  0  0  0
  -25.2245   15.0791   27.6621 H   0  0  0  0  0  0  0  0  0  0  0  0
  -24.2645   13.7927   26.8194 H   0  0  0  0  0  0  0  0  0  0  0  0
  -22.8879   12.1038   31.4884 C   0  0  0  0  0  0  0  0  0  0  0  0
  -22.9004   13.1307   31.7496 H   0  0  0  0  0  0  0  0  0  0  0  0
  -22.8095   11.1414   32.4958 C   0  0  0  0  0  0  0  0  0  0  0  0
  -22.7664   11.4454   33.5123 H   0  0  0  0  0  0  0  0  0  0  0  0
  -22.7881    9.7834   32.1797 C   0  0  0  0  0  0  0  0  0  0  0  0
  -22.7284    9.0586   32.9519 H   0  0  0  0  0  0  0  0  0  0  0  0
  -22.8435    9.3831   30.8488 C   0  0  0  0  0  0  0  0  0  0  0  0
  -22.8275    8.3568   30.5883 H   0  0  0  0  0  0  0  0  0  0  0  0
  1  2  1  0
  2  3  1  0
  2 28  2  0
  3  4  1  0
  3 22  2  0
  4  5  1  0
  4  6  1  0
  4  7  1  0
  7  8  1  0
  7 16  1  0
  7 19  1  0
  8  9  2  0
  8 10  1  0
 10 11  1  0
 10 12  1  0
 12 13  1  0
 12 14  1  0
 12 15  1  0
 16 17  1  0
 16 18  1  0
 16 19  1  0
 19 20  1  0
 19 21  1  0
 22 23  1  0
 22 24  1  0
 24 25  1  0
 24 26  2  0
 26 27  1  0
 26 28  1  0
 28 29  1  0
M  END
$$$$
