
     RDKit          3D

 39 40  0  0  0  0  0  0  0  0999 V2000
  -19.8212   12.3143   28.8929 O   0  0  0  0  0  0  0  0  0  0  0  0
  -20.6413   12.4444   27.9896 C   0  0  0  0  0  0  0  0  0  0  0  0
  -20.1851   12.7697   26.5681 C   0  0  0  0  0  0  0  0  0  0  0  0
  -19.1479   12.4265   26.4750 H   0  0  0  0  0  0  0  0  0  0  0  0
  -20.7553   12.1758   25.8434 H   0  0  0  0  0  0  0  0  0  0  0  0
  -20.2106   14.1457   26.2271 O   0  0  0  0  0  0  0  0  0  0  0  0
  -19.1175   14.9208   26.5201 C   0  0  0  0  0  0  0  0  0  0  0  0
  -18.0695   14.5627   27.3672 C   0  0  0  0  0  0  0  0  0  0  0  0
  -18.0621   13.6280   27.8641 H   0  0  0  0  0  0  0  0  0  0  0  0
  -17.0178   15.4519   27.5648 C   0  0  0  0  0  0  0  0  0  0  0  0
  -16.2158   15.1811   28.2037 H   0  0  0  0  0  0  0  0  0  0  0  0
  -17.0135   16.6949   26.9313 C   0  0  0  0  0  0  0  0  0  0  0  0
  -15.8594   17.6375   27.1226 C   0  0  0  0  0  0  0  0  0  0  0  0
  -15.0968   17.4515   26.3600 H   0  0  0  0  0  0  0  0  0  0  0  0
  -16.1881   18.6786   27.0494 H   0  0  0  0  0  0  0  0  0  0  0  0
  -15.4091   17.5080   28.1120 H   0  0  0  0  0  0  0  0  0  0  0  0
  -18.0740   17.0452   26.0942 C   0  0  0  0  0  0  0  0  0  0  0  0
  -18.0810   17.9890   25.6138 H   0  0  0  0  0  0  0  0  0  0  0  0
  -19.1289   16.1610   25.8906 C   0  0  0  0  0  0  0  0  0  0  0  0
  -19.9394   16.4279   25.2628 H   0  0  0  0  0  0  0  0  0  0  0  0
  -21.9626   12.3165   28.2776 N   0  0  0  0  0  0  0  0  0  0  0  0
  -22.3868   11.8607   29.6093 C   0  0  0  0  0  0  0  0  0  0  0  0
  -22.8050   10.8544   29.4786 H   0  0  0  0  0  0  0  0  0  0  0  0
  -21.5394   11.7678   30.2951 H   0  0  0  0  0  0  0  0  0  0  0  0
  -23.4370   12.7877   30.2266 C   0  0  0  0  0  0  0  0  0  0  0  0
  -23.0328   13.7884   30.4121 H   0  0  0  0  0  0  0  0  0  0  0  0
  -23.8317   12.3650   31.1551 H   0  0  0  0  0  0  0  0  0  0  0  0
  -24.6056   12.9452   29.2659 N   0  0  0  0  0  0  0  0  0  0  0  0
  -25.0030   12.0087   29.1047 H   0  0  0  0  0  0  0  0  0  0  0  0
  -25.7030   13.7835   29.8541 C   0  0  0  0  0  0  0  0  0  0  0  0
  -26.5296   13.8091   29.1390 H   0  0  0  0  0  0  0  0  0  0  0  0
  -26.0289   13.3100   30.7844 H   0  0  0  0  0  0  0  0  0  0  0  0
  -25.3150   14.7880   30.0407 H   0  0  0  0  0  0  0  0  0  0  0  0
  -24.1383   13.4832   27.9245 C   0  0  0  0  0  0  0  0  0  0  0  0
  -23.7494   14.4920   28.0999 H   0  0  0  0  0  0  0  0  0  0  0  0
  -25.0114   13.5314   27.2665 H   0  0  0  0  0  0  0  0  0  0  0  0
  -23.0574   12.5677   27.3303 C   0  0  0  0  0  0  0  0  0  0  0  0
  -22.6964   13.0232   26.4069 H   0  0  0  0  0  0  0  0  0  0  0  0
  -23.4885   11.5921   27.0740 H   0  0  0  0  0  0  0  0  0  0  0  0
  1  2  2  0
  2  3  1  0
  2 21  1  0
  3  4  1  0
  3  5  1  0
  3  6  1  0
  6  7  1  0
  7  8  1  0
  7 19  2  0
  8  9  1  0
  8 10  2  0
 10 11  1  0
 10 12  1  0
 12 13  1  0
 12 17  2  0
 13 14  1  0
 13 15  1  0
 13 16  1  0
 17 18  1  0
 17 19  1  0
 19 20  1  0
 21 22  1  0
 21 37  1  0
 22 23  1  0
 22 24  1  0
 22 25  1  0
 25 26  1  0
 25 27  1  0
 25 28  1  0
 28 29  1  0
 28 30  1  0
 28 34  1  0
 30 31  1  0
 30 32  1  0
 30 33  1  0
 34 35  1  0
 34 36  1  0
 34 37  1  0
 37 38  1  0
 37 39  1  0
M  END
$$$$
