
     RDKit          3D

 29 31  0  0  0  0  0  0  0  0999 V2000
  -22.0667   13.9298   28.1769 O   0  0  0  0  0  0  0  0  0  0  0  0
  -21.6146   12.9439   27.6390 C   0  0  0  0  0  0  0  0  0  0  0  0
  -20.3968   12.9541   27.0302 N   0  0  0  0  0  0  0  0  0  0  0  0
  -20.1032   12.0823   26.5816 H   0  0  0  0  0  0  0  0  0  0  0  0
  -19.4787   13.9711   26.9117 C   0  0  0  0  0  0  0  0  0  0  0  0
  -17.9450   13.7387   26.1299 S   0  0  0  0  0  0  0  0  0  0  0  0
  -17.5878   15.3994   26.4550 C   0  0  0  0  0  0  0  0  0  0  0  0
  -18.6606   15.9843   27.1265 C   0  0  0  0  0  0  0  0  0  0  0  0
  -19.7418   15.1498   27.3816 N   0  0  0  0  0  0  0  0  0  0  0  0
  -18.5780   17.3393   27.4877 C   0  0  0  0  0  0  0  0  0  0  0  0
  -19.3890   17.7884   27.9984 H   0  0  0  0  0  0  0  0  0  0  0  0
  -17.4422   18.0728   27.1762 C   0  0  0  0  0  0  0  0  0  0  0  0
  -17.3842   19.0938   27.4497 H   0  0  0  0  0  0  0  0  0  0  0  0
  -16.3708   17.4538   26.4938 C   0  0  0  0  0  0  0  0  0  0  0  0
  -15.2021   18.0763   26.1321 O   0  0  0  0  0  0  0  0  0  0  0  0
  -15.3057   19.2297   25.3052 C   0  0  0  0  0  0  0  0  0  0  0  0
  -15.8562   20.0297   25.8116 H   0  0  0  0  0  0  0  0  0  0  0  0
  -14.2924   19.5948   25.1123 H   0  0  0  0  0  0  0  0  0  0  0  0
  -15.7601   18.9841   24.3398 H   0  0  0  0  0  0  0  0  0  0  0  0
  -16.4318   16.1214   26.1291 C   0  0  0  0  0  0  0  0  0  0  0  0
  -15.6269   15.6595   25.6195 H   0  0  0  0  0  0  0  0  0  0  0  0
  -22.3365   11.6528   27.6171 C   0  0  0  0  0  0  0  0  0  0  0  0
  -21.8003   10.8653   27.0945 H   0  0  0  0  0  0  0  0  0  0  0  0
  -23.8457   11.6049   27.5793 C   0  0  0  0  0  0  0  0  0  0  0  0
  -24.4086   12.5314   27.6017 H   0  0  0  0  0  0  0  0  0  0  0  0
  -24.3127   10.8174   27.0004 H   0  0  0  0  0  0  0  0  0  0  0  0
  -23.1181   11.2139   28.8315 C   0  0  0  0  0  0  0  0  0  0  0  0
  -23.0892   10.1645   29.0988 H   0  0  0  0  0  0  0  0  0  0  0  0
  -23.1693   11.8859   29.6818 H   0  0  0  0  0  0  0  0  0  0  0  0
  1  2  2  0
  2  3  1  0
  2 22  1  0
  3  4  1  0
  3  5  1  0
  5  6  1  0
  5  9  2  0
  6  7  1  0
  7  8  1  0
  7 20  2  0
  8  9  1  0
  8 10  2  0
 10 11  1  0
 10 12  1  0
 12 13  1  0
 12 14  2  0
 14 15  1  0
 14 20  1  0
 15 16  1  0
 16 17  1  0
 16 18  1  0
 16 19  1  0
 20 21  1  0
 22 23  1  0
 22 24  1  0
 22 27  1  0
 24 25  1  0
 24 26  1  0
 24 27  1  0
 27 28  1  0
 27 29  1  0
M  END
$$$$
