
     RDKit          3D

 35 37  0  0  0  0  0  0  0  0999 V2000
  -17.5989   11.7372   25.5588 F   0  0  0  0  0  0  0  0  0  0  0  0
  -18.7662   12.0026   26.1620 C   0  0  0  0  0  0  0  0  0  0  0  0
  -18.9791   13.2728   26.6832 C   0  0  0  0  0  0  0  0  0  0  0  0
  -18.2270   14.0135   26.6005 H   0  0  0  0  0  0  0  0  0  0  0  0
  -20.1899   13.5495   27.3110 C   0  0  0  0  0  0  0  0  0  0  0  0
  -20.3549   14.5129   27.7076 H   0  0  0  0  0  0  0  0  0  0  0  0
  -21.1706   12.5470   27.4190 C   0  0  0  0  0  0  0  0  0  0  0  0
  -22.3741   12.8123   28.0601 N   0  0  0  0  0  0  0  0  0  0  0  0
  -22.5264   12.7441   29.5212 C   0  0  0  0  0  0  0  0  0  0  0  0
  -21.6300   12.3797   30.0330 H   0  0  0  0  0  0  0  0  0  0  0  0
  -22.7003   13.7624   29.8908 H   0  0  0  0  0  0  0  0  0  0  0  0
  -23.7281   11.8609   29.8930 C   0  0  0  0  0  0  0  0  0  0  0  0
  -23.8790   11.8806   30.9748 H   0  0  0  0  0  0  0  0  0  0  0  0
  -23.5312   10.8208   29.6081 H   0  0  0  0  0  0  0  0  0  0  0  0
  -24.9361   12.2801   29.1694 N   0  0  0  0  0  0  0  0  0  0  0  0
  -26.1367   12.5954   29.7607 C   0  0  0  0  0  0  0  0  0  0  0  0
  -27.0718   12.9186   29.0514 O   0  0  0  0  0  0  0  0  0  0  0  0
  -26.2655   12.5305   31.2338 C   0  0  0  0  0  0  0  0  0  0  0  0
  -26.3481   11.5213   31.6256 H   0  0  0  0  0  0  0  0  0  0  0  0
  -27.0705   13.5774   31.9711 C   0  0  0  0  0  0  0  0  0  0  0  0
  -27.5229   14.3774   31.3958 H   0  0  0  0  0  0  0  0  0  0  0  0
  -27.6592   13.2561   32.8216 H   0  0  0  0  0  0  0  0  0  0  0  0
  -25.5779   13.5610   32.0992 C   0  0  0  0  0  0  0  0  0  0  0  0
  -25.0247   14.3591   31.6162 H   0  0  0  0  0  0  0  0  0  0  0  0
  -25.1526   13.2309   33.0394 H   0  0  0  0  0  0  0  0  0  0  0  0
  -24.7705   12.3378   27.7115 C   0  0  0  0  0  0  0  0  0  0  0  0
  -24.6070   11.3086   27.3717 H   0  0  0  0  0  0  0  0  0  0  0  0
  -25.6756   12.7057   27.2182 H   0  0  0  0  0  0  0  0  0  0  0  0
  -23.5740   13.2186   27.3108 C   0  0  0  0  0  0  0  0  0  0  0  0
  -23.7910   14.2694   27.5351 H   0  0  0  0  0  0  0  0  0  0  0  0
  -23.4420   13.1281   26.2270 H   0  0  0  0  0  0  0  0  0  0  0  0
  -20.9366   11.2783   26.8638 C   0  0  0  0  0  0  0  0  0  0  0  0
  -21.6885   10.5352   26.9007 H   0  0  0  0  0  0  0  0  0  0  0  0
  -19.7244   11.0015   26.2389 C   0  0  0  0  0  0  0  0  0  0  0  0
  -19.5335   10.0491   25.8191 H   0  0  0  0  0  0  0  0  0  0  0  0
  1  2  1  0
  2  3  1  0
  2 34  2  0
  3  4  1  0
  3  5  2  0
  5  6  1  0
  5  7  1  0
  7  8  1  0
  7 32  2  0
  8  9  1  0
  8 29  1  0
  9 10  1  0
  9 11  1  0
  9 12  1  0
 12 13  1  0
 12 14  1  0
 12 15  1  0
 15 16  1  0
 15 26  1  0
 16 17  2  0
 16 18  1  0
 18 19  1  0
 18 20  1  0
 18 23  1  0
 20 21  1  0
 20 22  1  0
 20 23  1  0
 23 24  1  0
 23 25  1  0
 26 27  1  0
 26 28  1  0
 26 29  1  0
 29 30  1  0
 29 31  1  0
 32 33  1  0
 32 34  1  0
 34 35  1  0
M  END
$$$$
