
     RDKit          3D

 20 20  0  0  0  0  0  0  0  0999 V2000
  -15.2613   16.7297   27.5188 O   0  0  0  0  0  0  0  0  0  0  0  0
  -15.6538   17.7789   26.9718 C   0  0  0  0  0  0  0  0  0  0  0  0
  -17.0366   18.0379   26.9086 N   0  0  0  0  0  0  0  0  0  0  0  0
  -17.9708   17.0754   27.4846 C   0  0  0  0  0  0  0  0  0  0  0  0
  -18.5672   17.5680   28.2585 H   0  0  0  0  0  0  0  0  0  0  0  0
  -17.4604   16.2248   27.9450 H   0  0  0  0  0  0  0  0  0  0  0  0
  -18.6233   16.6898   26.6946 H   0  0  0  0  0  0  0  0  0  0  0  0
  -17.5257   19.2094   26.2868 C   0  0  0  0  0  0  0  0  0  0  0  0
  -19.0081   19.4477   26.2099 C   0  0  0  0  0  0  0  0  0  0  0  0
  -19.5008   18.6481   25.6470 H   0  0  0  0  0  0  0  0  0  0  0  0
  -19.2427   20.3903   25.7035 H   0  0  0  0  0  0  0  0  0  0  0  0
  -19.4468   19.5022   27.2107 H   0  0  0  0  0  0  0  0  0  0  0  0
  -16.6432   20.1193   25.7740 C   0  0  0  0  0  0  0  0  0  0  0  0
  -17.0031   21.0022   25.3121 H   0  0  0  0  0  0  0  0  0  0  0  0
  -15.2386   19.9119   25.8331 C   0  0  0  0  0  0  0  0  0  0  0  0
  -14.5796   20.6318   25.4211 H   0  0  0  0  0  0  0  0  0  0  0  0
  -14.7524   18.7751   26.4073 C   0  0  0  0  0  0  0  0  0  0  0  0
  -13.4098   18.5007   26.4915 N   0  0  0  0  0  0  0  0  0  0  0  0
  -12.7177   19.1385   26.1258 H   0  0  0  0  0  0  0  0  0  0  0  0
  -13.1374   17.6284   26.9386 H   0  0  0  0  0  0  0  0  0  0  0  0
  1  2  2  0
  2  3  1  0
  2 17  1  0
  3  4  1  0
  3  8  1  0
  4  5  1  0
  4  6  1  0
  4  7  1  0
  8  9  1  0
  8 13  2  0
  9 10  1  0
  9 11  1  0
  9 12  1  0
 13 14  1  0
 13 15  1  0
 15 16  1  0
 15 17  2  0
 17 18  1  0
 18 19  1  0
 18 20  1  0
M  END
$$$$
