
     RDKit          3D

 18 18  0  0  0  0  0  0  0  0999 V2000
  -24.8432   13.4285   30.1403 O   0  0  0  0  0  0  0  0  0  0  0  0
  -24.3523   12.6237   29.3621 C   0  0  0  0  0  0  0  0  0  0  0  0
  -23.5024   11.6790   29.8452 N   0  0  0  0  0  0  0  0  0  0  0  0
  -23.1581   10.9610   29.1991 H   0  0  0  0  0  0  0  0  0  0  0  0
  -23.0927   11.6280   31.2347 C   0  0  0  0  0  0  0  0  0  0  0  0
  -22.1265   11.1145   31.2929 H   0  0  0  0  0  0  0  0  0  0  0  0
  -22.9491   12.6571   31.5808 H   0  0  0  0  0  0  0  0  0  0  0  0
  -24.1192   10.9194   32.0962 C   0  0  0  0  0  0  0  0  0  0  0  0
  -24.2700    9.8891   31.7572 H   0  0  0  0  0  0  0  0  0  0  0  0
  -25.0870   11.4301   32.0528 H   0  0  0  0  0  0  0  0  0  0  0  0
  -23.7911   10.8937   33.1396 H   0  0  0  0  0  0  0  0  0  0  0  0
  -24.6481   12.6063   27.9593 C   0  0  0  0  0  0  0  0  0  0  0  0
  -25.2950   13.6063   27.3619 N   0  0  0  0  0  0  0  0  0  0  0  0
  -25.6386   14.4661   27.8335 H   0  0  0  0  0  0  0  0  0  0  0  0
  -25.4501   13.3592   26.0577 N   0  0  0  0  0  0  0  0  0  0  0  0
  -24.8969   12.1898   25.8057 N   0  0  0  0  0  0  0  0  0  0  0  0
  -24.4035   11.7246   26.9631 C   0  0  0  0  0  0  0  0  0  0  0  0
  -23.8994   10.7962   27.0512 H   0  0  0  0  0  0  0  0  0  0  0  0
  1  2  2  0
  2  3  1  0
  2 12  1  0
  3  4  1  0
  3  5  1  0
  5  6  1  0
  5  7  1  0
  5  8  1  0
  8  9  1  0
  8 10  1  0
  8 11  1  0
 12 13  1  0
 12 17  2  0
 13 14  1  0
 13 15  1  0
 15 16  2  0
 16 17  1  0
 17 18  1  0
M  END
$$$$
