
     RDKit          3D

 32 33  0  0  0  0  0  0  0  0999 V2000
  -22.9347   17.5762   30.4933 O   0  0  0  0  0  0  0  0  0  0  0  0
  -23.5731   18.1268   29.6084 C   0  0  0  0  0  0  0  0  0  0  0  0
  -24.9271   18.1167   29.4920 O   0  0  0  0  0  0  0  0  0  0  0  0
  -25.6008   17.3574   30.4984 C   0  0  0  0  0  0  0  0  0  0  0  0
  -25.3824   17.7597   31.4920 H   0  0  0  0  0  0  0  0  0  0  0  0
  -25.3144   16.3024   30.4350 H   0  0  0  0  0  0  0  0  0  0  0  0
  -26.6761   17.4369   30.3188 H   0  0  0  0  0  0  0  0  0  0  0  0
  -23.0393   18.8222   28.5671 N   0  0  0  0  0  0  0  0  0  0  0  0
  -23.7371   19.1457   27.8908 H   0  0  0  0  0  0  0  0  0  0  0  0
  -21.6892   19.1352   28.2982 C   0  0  0  0  0  0  0  0  0  0  0  0
  -20.7090   19.2097   29.2907 C   0  0  0  0  0  0  0  0  0  0  0  0
  -20.9531   19.0368   30.3051 H   0  0  0  0  0  0  0  0  0  0  0  0
  -19.4012   19.5241   28.9373 C   0  0  0  0  0  0  0  0  0  0  0  0
  -18.6582   19.5819   29.6916 H   0  0  0  0  0  0  0  0  0  0  0  0
  -19.0629   19.7683   27.6048 C   0  0  0  0  0  0  0  0  0  0  0  0
  -17.6430   20.1306   27.2311 C   0  0  0  0  0  0  0  0  0  0  0  0
  -17.2724   20.9023   27.9188 H   0  0  0  0  0  0  0  0  0  0  0  0
  -17.6277   20.6111   26.2438 H   0  0  0  0  0  0  0  0  0  0  0  0
  -16.7041   18.9508   27.2300 C   0  0  0  0  0  0  0  0  0  0  0  0
  -17.1587   17.6659   26.9577 C   0  0  0  0  0  0  0  0  0  0  0  0
  -18.1767   17.4915   26.7270 H   0  0  0  0  0  0  0  0  0  0  0  0
  -16.2693   16.5965   26.9883 C   0  0  0  0  0  0  0  0  0  0  0  0
  -16.6086   15.6123   26.7828 H   0  0  0  0  0  0  0  0  0  0  0  0
  -14.9798   16.7630   27.2735 N   0  0  0  0  0  0  0  0  0  0  0  0
  -14.5218   17.9847   27.5405 C   0  0  0  0  0  0  0  0  0  0  0  0
  -13.4908   18.0907   27.7684 H   0  0  0  0  0  0  0  0  0  0  0  0
  -15.3550   19.0986   27.5284 C   0  0  0  0  0  0  0  0  0  0  0  0
  -14.9571   20.0549   27.7520 H   0  0  0  0  0  0  0  0  0  0  0  0
  -20.0549   19.7030   26.6232 C   0  0  0  0  0  0  0  0  0  0  0  0
  -19.8127   19.8906   25.6088 H   0  0  0  0  0  0  0  0  0  0  0  0
  -21.3659   19.3894   26.9656 C   0  0  0  0  0  0  0  0  0  0  0  0
  -22.1129   19.3370   26.2166 H   0  0  0  0  0  0  0  0  0  0  0  0
  1  2  2  0
  2  3  1  0
  2  8  1  0
  3  4  1  0
  4  5  1  0
  4  6  1  0
  4  7  1  0
  8  9  1  0
  8 10  1  0
 10 11  1  0
 10 31  2  0
 11 12  1  0
 11 13  2  0
 13 14  1  0
 13 15  1  0
 15 16  1  0
 15 29  2  0
 16 17  1  0
 16 18  1  0
 16 19  1  0
 19 20  1  0
 19 27  2  0
 20 21  1  0
 20 22  2  0
 22 23  1  0
 22 24  1  0
 24 25  2  0
 25 26  1  0
 25 27  1  0
 27 28  1  0
 29 30  1  0
 29 31  1  0
 31 32  1  0
M  END
$$$$
