
     RDKit          3D

 19 19  0  0  0  0  0  0  0  0999 V2000
  -21.6161   12.6282   29.0909 O   0  0  0  0  0  0  0  0  0  0  0  0
  -21.7304   12.0233   28.0345 C   0  0  0  0  0  0  0  0  0  0  0  0
  -20.9613   12.2810   26.9862 N   0  0  0  0  0  0  0  0  0  0  0  0
  -21.0889   11.7726   26.1281 H   0  0  0  0  0  0  0  0  0  0  0  0
  -19.9258   13.2919   27.0223 C   0  0  0  0  0  0  0  0  0  0  0  0
  -20.3804   14.2450   27.3136 H   0  0  0  0  0  0  0  0  0  0  0  0
  -19.1932   13.0193   27.7896 H   0  0  0  0  0  0  0  0  0  0  0  0
  -19.2945   13.3843   25.6797 C   0  0  0  0  0  0  0  0  0  0  0  0
  -19.1919   12.4014   24.7542 C   0  0  0  0  0  0  0  0  0  0  0  0
  -19.5137   11.3917   24.7591 H   0  0  0  0  0  0  0  0  0  0  0  0
  -18.5489   12.9532   23.7030 N   0  0  0  0  0  0  0  0  0  0  0  0
  -18.3136   12.4627   22.8200 H   0  0  0  0  0  0  0  0  0  0  0  0
  -18.2300   14.2542   23.9295 N   0  0  0  0  0  0  0  0  0  0  0  0
  -18.6862   14.5062   25.1255 C   0  0  0  0  0  0  0  0  0  0  0  0
  -18.5898   15.4525   25.5962 H   0  0  0  0  0  0  0  0  0  0  0  0
  -22.7730   10.9595   27.8302 C   0  0  0  0  0  0  0  0  0  0  0  0
  -22.4674   10.2494   27.0567 H   0  0  0  0  0  0  0  0  0  0  0  0
  -23.7123   11.4318   27.5327 H   0  0  0  0  0  0  0  0  0  0  0  0
  -22.9196   10.4112   28.7649 H   0  0  0  0  0  0  0  0  0  0  0  0
  1  2  2  0
  2  3  1  0
  2 16  1  0
  3  4  1  0
  3  5  1  0
  5  6  1  0
  5  7  1  0
  5  8  1  0
  8  9  2  0
  8 14  1  0
  9 10  1  0
  9 11  1  0
 11 12  1  0
 11 13  1  0
 13 14  2  0
 14 15  1  0
 16 17  1  0
 16 18  1  0
 16 19  1  0
M  END
$$$$
