
     RDKit          3D

 18 18  0  0  0  0  0  0  0  0999 V2000
  -15.7870   15.7730   27.9051 O   0  0  0  0  0  0  0  0  0  0  0  0
  -16.3979   15.8711   26.8510 C   0  0  0  0  0  0  0  0  0  0  0  0
  -15.9560   16.7542   25.9167 N   0  0  0  0  0  0  0  0  0  0  0  0
  -16.4273   16.7729   25.0062 H   0  0  0  0  0  0  0  0  0  0  0  0
  -14.8322   17.6412   26.1439 C   0  0  0  0  0  0  0  0  0  0  0  0
  -15.0201   18.2115   27.0604 H   0  0  0  0  0  0  0  0  0  0  0  0
  -13.9436   17.0224   26.3078 H   0  0  0  0  0  0  0  0  0  0  0  0
  -14.6136   18.5801   24.9740 C   0  0  0  0  0  0  0  0  0  0  0  0
  -15.4977   19.2030   24.8021 H   0  0  0  0  0  0  0  0  0  0  0  0
  -14.4155   18.0203   24.0539 H   0  0  0  0  0  0  0  0  0  0  0  0
  -13.7610   19.2384   25.1657 H   0  0  0  0  0  0  0  0  0  0  0  0
  -17.5500   15.0787   26.5339 C   0  0  0  0  0  0  0  0  0  0  0  0
  -18.3117   15.3344   25.4710 N   0  0  0  0  0  0  0  0  0  0  0  0
  -18.1551   16.1045   24.7911 H   0  0  0  0  0  0  0  0  0  0  0  0
  -19.3203   14.4615   25.3888 N   0  0  0  0  0  0  0  0  0  0  0  0
  -19.2111   13.6304   26.4058 N   0  0  0  0  0  0  0  0  0  0  0  0
  -18.1306   14.0008   27.1091 C   0  0  0  0  0  0  0  0  0  0  0  0
  -17.8045   13.5001   27.9847 H   0  0  0  0  0  0  0  0  0  0  0  0
  1  2  2  0
  2  3  1  0
  2 12  1  0
  3  4  1  0
  3  5  1  0
  5  6  1  0
  5  7  1  0
  5  8  1  0
  8  9  1  0
  8 10  1  0
  8 11  1  0
 12 13  1  0
 12 17  2  0
 13 14  1  0
 13 15  1  0
 15 16  2  0
 16 17  1  0
 17 18  1  0
M  END
$$$$
