
     RDKit          3D

 22 22  0  0  0  0  0  0  0  0999 V2000
  -20.6639   11.6424   27.1729 O   0  0  0  0  0  0  0  0  0  0  0  0
  -21.0383   11.0754   26.4765 H   0  0  0  0  0  0  0  0  0  0  0  0
  -21.5870   12.7072   27.3837 C   0  0  0  0  0  0  0  0  0  0  0  0
  -21.1437   13.4267   28.0807 H   0  0  0  0  0  0  0  0  0  0  0  0
  -21.7470   13.2010   26.4199 H   0  0  0  0  0  0  0  0  0  0  0  0
  -22.9115   12.1569   27.9087 C   0  0  0  0  0  0  0  0  0  0  0  0
  -23.1573   11.2413   27.3570 H   0  0  0  0  0  0  0  0  0  0  0  0
  -22.8109   11.8838   28.9671 H   0  0  0  0  0  0  0  0  0  0  0  0
  -24.0417   13.1274   27.7671 C   0  0  0  0  0  0  0  0  0  0  0  0
  -24.3365   14.1637   28.5839 C   0  0  0  0  0  0  0  0  0  0  0  0
  -23.8738   14.5153   29.4684 H   0  0  0  0  0  0  0  0  0  0  0  0
  -25.4310   14.7539   28.0556 N   0  0  0  0  0  0  0  0  0  0  0  0
  -26.1432   15.9125   28.5493 C   0  0  0  0  0  0  0  0  0  0  0  0
  -27.1613   15.8751   28.1472 H   0  0  0  0  0  0  0  0  0  0  0  0
  -26.2081   15.8236   29.6391 H   0  0  0  0  0  0  0  0  0  0  0  0
  -25.4661   17.2124   28.1532 C   0  0  0  0  0  0  0  0  0  0  0  0
  -25.4010   17.3070   27.0630 H   0  0  0  0  0  0  0  0  0  0  0  0
  -24.4481   17.2671   28.5534 H   0  0  0  0  0  0  0  0  0  0  0  0
  -26.0310   18.0675   28.5370 H   0  0  0  0  0  0  0  0  0  0  0  0
  -25.8485   14.1253   26.9286 N   0  0  0  0  0  0  0  0  0  0  0  0
  -25.0024   13.1455   26.7596 C   0  0  0  0  0  0  0  0  0  0  0  0
  -25.0576   12.4562   25.9529 H   0  0  0  0  0  0  0  0  0  0  0  0
  1  2  1  0
  1  3  1  0
  3  4  1  0
  3  5  1  0
  3  6  1  0
  6  7  1  0
  6  8  1  0
  6  9  1  0
  9 10  2  0
  9 21  1  0
 10 11  1  0
 10 12  1  0
 12 13  1  0
 12 20  1  0
 13 14  1  0
 13 15  1  0
 13 16  1  0
 16 17  1  0
 16 18  1  0
 16 19  1  0
 20 21  2  0
 21 22  1  0
M  END
$$$$
