
     RDKit          3D

 23 23  0  0  0  0  0  0  0  0999 V2000
  -20.3156   11.7537   26.3058 Cl  0  0  0  0  0  0  0  0  0  0  0  0
  -19.6914   13.3581   26.3402 C   0  0  0  0  0  0  0  0  0  0  0  0
  -18.8549   13.8871   25.3444 C   0  0  0  0  0  0  0  0  0  0  0  0
  -18.3905   13.1683   24.1393 C   0  0  0  0  0  0  0  0  0  0  0  0
  -18.9671   12.3073   23.4914 O   0  0  0  0  0  0  0  0  0  0  0  0
  -17.1608   13.4734   23.6541 N   0  0  0  0  0  0  0  0  0  0  0  0
  -16.8271   12.9741   22.8207 H   0  0  0  0  0  0  0  0  0  0  0  0
  -16.5876   14.1822   24.1292 H   0  0  0  0  0  0  0  0  0  0  0  0
  -18.4251   15.1671   25.4783 N   0  0  0  0  0  0  0  0  0  0  0  0
  -18.7853   15.8963   26.5233 C   0  0  0  0  0  0  0  0  0  0  0  0
  -18.2796   17.3131   26.6241 C   0  0  0  0  0  0  0  0  0  0  0  0
  -18.4416   17.8057   25.6570 H   0  0  0  0  0  0  0  0  0  0  0  0
  -19.0551   18.0955   27.6824 C   0  0  0  0  0  0  0  0  0  0  0  0
  -18.9175   17.6707   28.6839 H   0  0  0  0  0  0  0  0  0  0  0  0
  -20.1294   18.0897   27.4654 H   0  0  0  0  0  0  0  0  0  0  0  0
  -18.7239   19.1389   27.7127 H   0  0  0  0  0  0  0  0  0  0  0  0
  -16.7787   17.3363   26.9130 C   0  0  0  0  0  0  0  0  0  0  0  0
  -16.5451   16.8808   27.8818 H   0  0  0  0  0  0  0  0  0  0  0  0
  -16.4033   18.3655   26.9275 H   0  0  0  0  0  0  0  0  0  0  0  0
  -16.2234   16.7866   26.1454 H   0  0  0  0  0  0  0  0  0  0  0  0
  -19.5796   15.4129   27.4830 N   0  0  0  0  0  0  0  0  0  0  0  0
  -20.0327   14.1750   27.4117 C   0  0  0  0  0  0  0  0  0  0  0  0
  -20.6621   13.8105   28.1841 H   0  0  0  0  0  0  0  0  0  0  0  0
  1  2  1  0
  2  3  1  0
  2 22  2  0
  3  4  1  0
  3  9  2  0
  4  5  2  0
  4  6  1  0
  6  7  1  0
  6  8  1  0
  9 10  1  0
 10 11  1  0
 10 21  2  0
 11 12  1  0
 11 13  1  0
 11 17  1  0
 13 14  1  0
 13 15  1  0
 13 16  1  0
 17 18  1  0
 17 19  1  0
 17 20  1  0
 21 22  1  0
 22 23  1  0
M  END
$$$$
