
     RDKit          3D

 24 24  0  0  0  0  0  0  0  0999 V2000
  -20.4256   14.1756   27.7012 O   0  0  0  0  0  0  0  0  0  0  0  0
  -21.3689   13.9999   27.8673 H   0  0  0  0  0  0  0  0  0  0  0  0
  -19.8618   12.9756   27.1852 C   0  0  0  0  0  0  0  0  0  0  0  0
  -20.0748   12.1612   27.8843 H   0  0  0  0  0  0  0  0  0  0  0  0
  -20.3570   12.7588   26.2336 H   0  0  0  0  0  0  0  0  0  0  0  0
  -18.3536   13.1334   26.9525 C   0  0  0  0  0  0  0  0  0  0  0  0
  -17.8969   12.1762   26.6745 H   0  0  0  0  0  0  0  0  0  0  0  0
  -17.8850   13.4114   27.9051 H   0  0  0  0  0  0  0  0  0  0  0  0
  -18.0539   14.1879   25.9587 N   0  0  0  0  0  0  0  0  0  0  0  0
  -18.1896   13.7833   24.5597 C   0  0  0  0  0  0  0  0  0  0  0  0
  -18.3490   12.7028   24.4612 H   0  0  0  0  0  0  0  0  0  0  0  0
  -17.2811   14.0225   23.9963 H   0  0  0  0  0  0  0  0  0  0  0  0
  -19.0479   14.2827   24.0973 H   0  0  0  0  0  0  0  0  0  0  0  0
  -17.6665   15.4372   26.3784 C   0  0  0  0  0  0  0  0  0  0  0  0
  -18.5968   16.1106   27.0712 N   0  0  0  0  0  0  0  0  0  0  0  0
  -19.4951   15.6316   27.1986 H   0  0  0  0  0  0  0  0  0  0  0  0
  -18.3863   17.3589   27.5858 C   0  0  0  0  0  0  0  0  0  0  0  0
  -19.2028   17.7828   28.1169 H   0  0  0  0  0  0  0  0  0  0  0  0
  -17.1699   17.9705   27.3919 C   0  0  0  0  0  0  0  0  0  0  0  0
  -16.9838   18.9388   27.7830 H   0  0  0  0  0  0  0  0  0  0  0  0
  -16.1642   17.3106   26.6638 C   0  0  0  0  0  0  0  0  0  0  0  0
  -15.2252   17.7835   26.5027 H   0  0  0  0  0  0  0  0  0  0  0  0
  -16.4081   16.0563   26.1571 C   0  0  0  0  0  0  0  0  0  0  0  0
  -15.6660   15.5579   25.5926 H   0  0  0  0  0  0  0  0  0  0  0  0
  1  2  1  0
  1  3  1  0
  3  4  1  0
  3  5  1  0
  3  6  1  0
  6  7  1  0
  6  8  1  0
  6  9  1  0
  9 10  1  0
  9 14  1  0
 10 11  1  0
 10 12  1  0
 10 13  1  0
 14 15  1  0
 14 23  2  0
 15 16  1  0
 15 17  2  0
 17 18  1  0
 17 19  1  0
 19 20  1  0
 19 21  2  0
 21 22  1  0
 21 23  1  0
 23 24  1  0
M  END
$$$$
