
     RDKit          3D

 24 24  0  0  0  0  0  0  0  0999 V2000
  -14.3092   17.1760   27.2888 O   0  0  0  0  0  0  0  0  0  0  0  0
  -14.4707   17.7369   28.0683 H   0  0  0  0  0  0  0  0  0  0  0  0
  -15.5483   17.0500   26.6011 C   0  0  0  0  0  0  0  0  0  0  0  0
  -15.9187   18.0518   26.3630 H   0  0  0  0  0  0  0  0  0  0  0  0
  -15.3557   16.5162   25.6653 H   0  0  0  0  0  0  0  0  0  0  0  0
  -16.5638   16.2626   27.4393 C   0  0  0  0  0  0  0  0  0  0  0  0
  -16.5839   16.6247   28.4739 H   0  0  0  0  0  0  0  0  0  0  0  0
  -16.2238   15.2212   27.5040 H   0  0  0  0  0  0  0  0  0  0  0  0
  -17.9130   16.2770   26.8319 N   0  0  0  0  0  0  0  0  0  0  0  0
  -18.6389   17.5408   26.9546 C   0  0  0  0  0  0  0  0  0  0  0  0
  -18.1231   18.2446   27.6187 H   0  0  0  0  0  0  0  0  0  0  0  0
  -19.6354   17.3767   27.3789 H   0  0  0  0  0  0  0  0  0  0  0  0
  -18.7338   18.0254   25.9768 H   0  0  0  0  0  0  0  0  0  0  0  0
  -18.4032   15.1486   26.2207 C   0  0  0  0  0  0  0  0  0  0  0  0
  -17.8539   14.8716   25.0289 N   0  0  0  0  0  0  0  0  0  0  0  0
  -17.1446   15.5345   24.6972 H   0  0  0  0  0  0  0  0  0  0  0  0
  -18.2004   13.7805   24.2826 C   0  0  0  0  0  0  0  0  0  0  0  0
  -17.6893   13.6730   23.3575 H   0  0  0  0  0  0  0  0  0  0  0  0
  -19.1577   12.9158   24.7590 C   0  0  0  0  0  0  0  0  0  0  0  0
  -19.4418   12.0620   24.1973 H   0  0  0  0  0  0  0  0  0  0  0  0
  -19.7712   13.1668   25.9990 C   0  0  0  0  0  0  0  0  0  0  0  0
  -20.5193   12.5064   26.3672 H   0  0  0  0  0  0  0  0  0  0  0  0
  -19.4022   14.2745   26.7245 C   0  0  0  0  0  0  0  0  0  0  0  0
  -19.8694   14.4834   27.6497 H   0  0  0  0  0  0  0  0  0  0  0  0
  1  2  1  0
  1  3  1  0
  3  4  1  0
  3  5  1  0
  3  6  1  0
  6  7  1  0
  6  8  1  0
  6  9  1  0
  9 10  1  0
  9 14  1  0
 10 11  1  0
 10 12  1  0
 10 13  1  0
 14 15  1  0
 14 23  2  0
 15 16  1  0
 15 17  2  0
 17 18  1  0
 17 19  1  0
 19 20  1  0
 19 21  2  0
 21 22  1  0
 21 23  1  0
 23 24  1  0
M  END
$$$$
