
     RDKit          3D

 35 37  0  0  0  0  0  0  0  0999 V2000
  -18.7311   10.6562   24.6035 F   0  0  0  0  0  0  0  0  0  0  0  0
  -18.5072   11.8667   25.1343 C   0  0  0  0  0  0  0  0  0  0  0  0
  -18.4415   12.9682   24.2901 C   0  0  0  0  0  0  0  0  0  0  0  0
  -18.5679   12.8452   23.2460 H   0  0  0  0  0  0  0  0  0  0  0  0
  -18.2078   14.2254   24.8394 C   0  0  0  0  0  0  0  0  0  0  0  0
  -18.1576   15.0638   24.2013 H   0  0  0  0  0  0  0  0  0  0  0  0
  -18.0320   14.3637   26.2280 C   0  0  0  0  0  0  0  0  0  0  0  0
  -17.7810   15.6136   26.7800 N   0  0  0  0  0  0  0  0  0  0  0  0
  -18.7828   16.6902   26.7937 C   0  0  0  0  0  0  0  0  0  0  0  0
  -19.6987   16.4359   26.2510 H   0  0  0  0  0  0  0  0  0  0  0  0
  -19.0793   16.8627   27.8359 H   0  0  0  0  0  0  0  0  0  0  0  0
  -18.1848   17.9843   26.2192 C   0  0  0  0  0  0  0  0  0  0  0  0
  -18.9107   18.7960   26.3064 H   0  0  0  0  0  0  0  0  0  0  0  0
  -17.9644   17.8544   25.1533 H   0  0  0  0  0  0  0  0  0  0  0  0
  -16.9158   18.3189   26.8797 N   0  0  0  0  0  0  0  0  0  0  0  0
  -16.6351   19.5246   27.4782 C   0  0  0  0  0  0  0  0  0  0  0  0
  -15.5396   19.6866   27.9834 O   0  0  0  0  0  0  0  0  0  0  0  0
  -17.6614   20.5912   27.4901 C   0  0  0  0  0  0  0  0  0  0  0  0
  -17.9166   20.9692   26.5049 H   0  0  0  0  0  0  0  0  0  0  0  0
  -17.6728   21.6195   28.5992 C   0  0  0  0  0  0  0  0  0  0  0  0
  -16.9306   21.5361   29.3853 H   0  0  0  0  0  0  0  0  0  0  0  0
  -17.9312   22.6391   28.3407 H   0  0  0  0  0  0  0  0  0  0  0  0
  -18.7507   20.5808   28.5374 C   0  0  0  0  0  0  0  0  0  0  0  0
  -18.7391   19.8011   29.2912 H   0  0  0  0  0  0  0  0  0  0  0  0
  -19.7434   20.8964   28.2393 H   0  0  0  0  0  0  0  0  0  0  0  0
  -15.9237   17.2366   26.8527 C   0  0  0  0  0  0  0  0  0  0  0  0
  -15.6417   17.0933   25.8032 H   0  0  0  0  0  0  0  0  0  0  0  0
  -15.0166   17.5088   27.4014 H   0  0  0  0  0  0  0  0  0  0  0  0
  -16.4961   15.9280   27.4251 C   0  0  0  0  0  0  0  0  0  0  0  0
  -16.6591   16.0311   28.5043 H   0  0  0  0  0  0  0  0  0  0  0  0
  -15.7476   15.1425   27.2733 H   0  0  0  0  0  0  0  0  0  0  0  0
  -18.1251   13.2358   27.0597 C   0  0  0  0  0  0  0  0  0  0  0  0
  -18.0405   13.3407   28.1088 H   0  0  0  0  0  0  0  0  0  0  0  0
  -18.3558   11.9786   26.5093 C   0  0  0  0  0  0  0  0  0  0  0  0
  -18.4252   11.1199   27.1238 H   0  0  0  0  0  0  0  0  0  0  0  0
  1  2  1  0
  2  3  1  0
  2 34  2  0
  3  4  1  0
  3  5  2  0
  5  6  1  0
  5  7  1  0
  7  8  1  0
  7 32  2  0
  8  9  1  0
  8 29  1  0
  9 10  1  0
  9 11  1  0
  9 12  1  0
 12 13  1  0
 12 14  1  0
 12 15  1  0
 15 16  1  0
 15 26  1  0
 16 17  2  0
 16 18  1  0
 18 19  1  0
 18 20  1  0
 18 23  1  0
 20 21  1  0
 20 22  1  0
 20 23  1  0
 23 24  1  0
 23 25  1  0
 26 27  1  0
 26 28  1  0
 26 29  1  0
 29 30  1  0
 29 31  1  0
 32 33  1  0
 32 34  1  0
 34 35  1  0
M  END
$$$$
