
     RDKit          3D

 25 27  0  0  0  0  0  0  0  0999 V2000
  -17.2865   14.5104   25.1821 O   0  0  0  0  0  0  0  0  0  0  0  0
  -17.8209   15.1909   26.0557 C   0  0  0  0  0  0  0  0  0  0  0  0
  -18.8946   14.6753   26.7177 N   0  0  0  0  0  0  0  0  0  0  0  0
  -19.2963   15.2824   27.4509 H   0  0  0  0  0  0  0  0  0  0  0  0
  -19.4639   13.3932   26.4690 C   0  0  0  0  0  0  0  0  0  0  0  0
  -19.7543   13.2525   25.4304 H   0  0  0  0  0  0  0  0  0  0  0  0
  -20.3304   12.7248   27.5019 C   0  0  0  0  0  0  0  0  0  0  0  0
  -20.4792   13.2161   28.4557 H   0  0  0  0  0  0  0  0  0  0  0  0
  -21.1879   12.1620   27.1520 H   0  0  0  0  0  0  0  0  0  0  0  0
  -18.9652   12.1793   27.2028 C   0  0  0  0  0  0  0  0  0  0  0  0
  -18.8941   11.2515   26.6483 H   0  0  0  0  0  0  0  0  0  0  0  0
  -18.1895   12.3134   27.9481 H   0  0  0  0  0  0  0  0  0  0  0  0
  -17.3829   16.5119   26.4424 C   0  0  0  0  0  0  0  0  0  0  0  0
  -18.1146   17.4333   27.1490 C   0  0  0  0  0  0  0  0  0  0  0  0
  -17.2783   18.5182   27.2671 N   0  0  0  0  0  0  0  0  0  0  0  0
  -16.0688   18.3226   26.6779 N   0  0  0  0  0  0  0  0  0  0  0  0
  -16.1498   17.1097   26.1862 C   0  0  0  0  0  0  0  0  0  0  0  0
  -15.3563   16.6458   25.6545 H   0  0  0  0  0  0  0  0  0  0  0  0
  -17.6808   19.6797   27.9380 C   0  0  0  0  0  0  0  0  0  0  0  0
  -16.9683   20.4622   27.9763 H   0  0  0  0  0  0  0  0  0  0  0  0
  -18.9448   19.6668   28.4621 C   0  0  0  0  0  0  0  0  0  0  0  0
  -19.3231   20.5076   28.9824 H   0  0  0  0  0  0  0  0  0  0  0  0
  -19.7873   18.5153   28.3184 C   0  0  0  0  0  0  0  0  0  0  0  0
  -20.7628   18.5291   28.7327 H   0  0  0  0  0  0  0  0  0  0  0  0
  -19.4063   17.4352   27.6924 N   0  0  0  0  0  0  0  0  0  0  0  0
  1  2  2  0
  2  3  1  0
  2 13  1  0
  3  4  1  0
  3  5  1  0
  5  6  1  0
  5  7  1  0
  5 10  1  0
  7  8  1  0
  7  9  1  0
  7 10  1  0
 10 11  1  0
 10 12  1  0
 13 14  2  0
 13 17  1  0
 14 15  1  0
 14 25  1  0
 15 16  1  0
 15 19  1  0
 16 17  2  0
 17 18  1  0
 19 20  1  0
 19 21  2  0
 21 22  1  0
 21 23  1  0
 23 24  1  0
 23 25  2  0
M  END
$$$$
