
     RDKit          3D

 18 18  0  0  0  0  0  0  0  0999 V2000
  -21.9090   13.5635   28.9196 O   0  0  0  0  0  0  0  0  0  0  0  0
  -22.2982   13.2463   27.7969 C   0  0  0  0  0  0  0  0  0  0  0  0
  -21.3738   12.7166   26.9387 N   0  0  0  0  0  0  0  0  0  0  0  0
  -21.7247   12.3983   26.0243 H   0  0  0  0  0  0  0  0  0  0  0  0
  -19.9712   12.5710   27.2661 C   0  0  0  0  0  0  0  0  0  0  0  0
  -19.5340   13.5712   27.3605 H   0  0  0  0  0  0  0  0  0  0  0  0
  -19.9017   12.0787   28.2413 H   0  0  0  0  0  0  0  0  0  0  0  0
  -19.2315   11.7684   26.2137 C   0  0  0  0  0  0  0  0  0  0  0  0
  -18.1752   11.6696   26.4809 H   0  0  0  0  0  0  0  0  0  0  0  0
  -19.6572   10.7641   26.1170 H   0  0  0  0  0  0  0  0  0  0  0  0
  -19.2961   12.2547   25.2348 H   0  0  0  0  0  0  0  0  0  0  0  0
  -23.6495   13.3563   27.3053 C   0  0  0  0  0  0  0  0  0  0  0  0
  -24.0667   12.8076   26.1273 N   0  0  0  0  0  0  0  0  0  0  0  0
  -25.3365   13.0938   25.9854 N   0  0  0  0  0  0  0  0  0  0  0  0
  -25.7177   13.8096   27.0540 N   0  0  0  0  0  0  0  0  0  0  0  0
  -26.6847   14.1611   27.1839 H   0  0  0  0  0  0  0  0  0  0  0  0
  -24.7001   13.9878   27.8848 C   0  0  0  0  0  0  0  0  0  0  0  0
  -24.7786   14.5248   28.7947 H   0  0  0  0  0  0  0  0  0  0  0  0
  1  2  2  0
  2  3  1  0
  2 12  1  0
  3  4  1  0
  3  5  1  0
  5  6  1  0
  5  7  1  0
  5  8  1  0
  8  9  1  0
  8 10  1  0
  8 11  1  0
 12 13  1  0
 12 17  2  0
 13 14  2  0
 14 15  1  0
 15 16  1  0
 15 17  1  0
 17 18  1  0
M  END
$$$$
