
     RDKit          3D

 23 23  0  0  0  0  0  0  0  0999 V2000
  -14.6021   17.7836   25.2334 Cl  0  0  0  0  0  0  0  0  0  0  0  0
  -16.1041   18.4718   25.7184 C   0  0  0  0  0  0  0  0  0  0  0  0
  -17.0341   17.8087   26.5351 C   0  0  0  0  0  0  0  0  0  0  0  0
  -16.8738   16.4498   27.0939 C   0  0  0  0  0  0  0  0  0  0  0  0
  -15.8648   15.9148   27.5287 O   0  0  0  0  0  0  0  0  0  0  0  0
  -17.9708   15.6534   27.1475 N   0  0  0  0  0  0  0  0  0  0  0  0
  -17.8674   14.7050   27.5282 H   0  0  0  0  0  0  0  0  0  0  0  0
  -18.8724   16.0048   26.8006 H   0  0  0  0  0  0  0  0  0  0  0  0
  -18.1853   18.4527   26.8531 N   0  0  0  0  0  0  0  0  0  0  0  0
  -18.4243   19.6745   26.4021 C   0  0  0  0  0  0  0  0  0  0  0  0
  -19.7192   20.3453   26.7849 C   0  0  0  0  0  0  0  0  0  0  0  0
  -19.5269   21.4185   26.9091 H   0  0  0  0  0  0  0  0  0  0  0  0
  -20.7648   20.1825   25.6832 C   0  0  0  0  0  0  0  0  0  0  0  0
  -21.0248   19.1296   25.5219 H   0  0  0  0  0  0  0  0  0  0  0  0
  -20.3966   20.5819   24.7312 H   0  0  0  0  0  0  0  0  0  0  0  0
  -21.6843   20.7193   25.9396 H   0  0  0  0  0  0  0  0  0  0  0  0
  -20.2375   19.8075   28.1187 C   0  0  0  0  0  0  0  0  0  0  0  0
  -20.4761   18.7397   28.0602 H   0  0  0  0  0  0  0  0  0  0  0  0
  -21.1467   20.3379   28.4226 H   0  0  0  0  0  0  0  0  0  0  0  0
  -19.4916   19.9379   28.9101 H   0  0  0  0  0  0  0  0  0  0  0  0
  -17.5540   20.3236   25.6230 N   0  0  0  0  0  0  0  0  0  0  0  0
  -16.4148   19.7529   25.2779 C   0  0  0  0  0  0  0  0  0  0  0  0
  -15.7376   20.2854   24.6586 H   0  0  0  0  0  0  0  0  0  0  0  0
  1  2  1  0
  2  3  1  0
  2 22  2  0
  3  4  1  0
  3  9  2  0
  4  5  2  0
  4  6  1  0
  6  7  1  0
  6  8  1  0
  9 10  1  0
 10 11  1  0
 10 21  2  0
 11 12  1  0
 11 13  1  0
 11 17  1  0
 13 14  1  0
 13 15  1  0
 13 16  1  0
 17 18  1  0
 17 19  1  0
 17 20  1  0
 21 22  1  0
 22 23  1  0
M  END
$$$$
