
     RDKit          3D

 20 20  0  0  0  0  0  0  0  0999 V2000
  -22.8713   10.2270   28.2306 O   0  0  0  0  0  0  0  0  0  0  0  0
  -23.0319   10.8767   29.2824 C   0  0  0  0  0  0  0  0  0  0  0  0
  -23.3133   12.2538   29.1960 N   0  0  0  0  0  0  0  0  0  0  0  0
  -23.4110   12.8821   27.8821 C   0  0  0  0  0  0  0  0  0  0  0  0
  -24.4035   13.3279   27.7666 H   0  0  0  0  0  0  0  0  0  0  0  0
  -23.2677   12.1667   27.0674 H   0  0  0  0  0  0  0  0  0  0  0  0
  -22.6390   13.6532   27.7933 H   0  0  0  0  0  0  0  0  0  0  0  0
  -23.4905   13.0308   30.3637 C   0  0  0  0  0  0  0  0  0  0  0  0
  -23.7637   14.5042   30.2428 C   0  0  0  0  0  0  0  0  0  0  0  0
  -22.9370   15.0114   29.7347 H   0  0  0  0  0  0  0  0  0  0  0  0
  -23.8787   14.9782   31.2236 H   0  0  0  0  0  0  0  0  0  0  0  0
  -24.6887   14.6851   29.6874 H   0  0  0  0  0  0  0  0  0  0  0  0
  -23.4247   12.4295   31.5900 C   0  0  0  0  0  0  0  0  0  0  0  0
  -23.5627   13.0051   32.4687 H   0  0  0  0  0  0  0  0  0  0  0  0
  -23.1644   11.0393   31.7267 C   0  0  0  0  0  0  0  0  0  0  0  0
  -23.1126   10.6029   32.6906 H   0  0  0  0  0  0  0  0  0  0  0  0
  -22.9664   10.2815   30.6109 C   0  0  0  0  0  0  0  0  0  0  0  0
  -22.6999    8.9357   30.6643 N   0  0  0  0  0  0  0  0  0  0  0  0
  -22.6382    8.4453   31.5448 H   0  0  0  0  0  0  0  0  0  0  0  0
  -22.5677    8.4492   29.7807 H   0  0  0  0  0  0  0  0  0  0  0  0
  1  2  2  0
  2  3  1  0
  2 17  1  0
  3  4  1  0
  3  8  1  0
  4  5  1  0
  4  6  1  0
  4  7  1  0
  8  9  1  0
  8 13  2  0
  9 10  1  0
  9 11  1  0
  9 12  1  0
 13 14  1  0
 13 15  1  0
 15 16  1  0
 15 17  2  0
 17 18  1  0
 18 19  1  0
 18 20  1  0
M  END
$$$$
