
     RDKit          3D

 31 32  0  0  0  0  0  0  0  0999 V2000
  -24.0942   12.0802   28.4037 O   0  0  0  0  0  0  0  0  0  0  0  0
  -23.6226   13.2065   28.4901 C   0  0  0  0  0  0  0  0  0  0  0  0
  -22.2646   13.3006   28.5565 N   0  0  0  0  0  0  0  0  0  0  0  0
  -21.8067   14.2194   28.5337 H   0  0  0  0  0  0  0  0  0  0  0  0
  -21.4139   12.1295   28.6238 C   0  0  0  0  0  0  0  0  0  0  0  0
  -22.0041   11.2536   28.3305 H   0  0  0  0  0  0  0  0  0  0  0  0
  -21.0930   11.9876   29.6620 H   0  0  0  0  0  0  0  0  0  0  0  0
  -20.2511   12.3182   27.7164 C   0  0  0  0  0  0  0  0  0  0  0  0
  -20.2834   12.6534   26.4050 C   0  0  0  0  0  0  0  0  0  0  0  0
  -21.0885   12.8571   25.7498 H   0  0  0  0  0  0  0  0  0  0  0  0
  -18.9939   12.6975   26.0020 N   0  0  0  0  0  0  0  0  0  0  0  0
  -18.4800   13.0078   24.6846 C   0  0  0  0  0  0  0  0  0  0  0  0
  -17.5394   12.4609   24.5558 H   0  0  0  0  0  0  0  0  0  0  0  0
  -19.1956   12.6219   23.9511 H   0  0  0  0  0  0  0  0  0  0  0  0
  -18.2564   14.4966   24.4905 C   0  0  0  0  0  0  0  0  0  0  0  0
  -17.5446   14.8868   25.2262 H   0  0  0  0  0  0  0  0  0  0  0  0
  -19.1914   15.0552   24.6035 H   0  0  0  0  0  0  0  0  0  0  0  0
  -17.8590   14.6943   23.4905 H   0  0  0  0  0  0  0  0  0  0  0  0
  -18.1419   12.4032   27.0164 N   0  0  0  0  0  0  0  0  0  0  0  0
  -18.9092   12.1728   28.0463 C   0  0  0  0  0  0  0  0  0  0  0  0
  -18.5318   11.9153   29.0037 H   0  0  0  0  0  0  0  0  0  0  0  0
  -24.4514   14.4272   28.4768 C   0  0  0  0  0  0  0  0  0  0  0  0
  -25.5306   14.4813   27.5856 C   0  0  0  0  0  0  0  0  0  0  0  0
  -25.7250   13.6567   26.9451 H   0  0  0  0  0  0  0  0  0  0  0  0
  -26.3362   15.5418   27.5007 N   0  0  0  0  0  0  0  0  0  0  0  0
  -26.1267   16.5950   28.2879 C   0  0  0  0  0  0  0  0  0  0  0  0
  -26.7843   17.4229   28.1970 H   0  0  0  0  0  0  0  0  0  0  0  0
  -25.0822   16.6213   29.2083 C   0  0  0  0  0  0  0  0  0  0  0  0
  -24.9439   17.4706   29.8248 H   0  0  0  0  0  0  0  0  0  0  0  0
  -24.2304   15.5292   29.3125 C   0  0  0  0  0  0  0  0  0  0  0  0
  -23.4403   15.5376   30.0173 H   0  0  0  0  0  0  0  0  0  0  0  0
  1  2  2  0
  2  3  1  0
  2 22  1  0
  3  4  1  0
  3  5  1  0
  5  6  1  0
  5  7  1  0
  5  8  1  0
  8  9  2  0
  8 20  1  0
  9 10  1  0
  9 11  1  0
 11 12  1  0
 11 19  1  0
 12 13  1  0
 12 14  1  0
 12 15  1  0
 15 16  1  0
 15 17  1  0
 15 18  1  0
 19 20  2  0
 20 21  1  0
 22 23  1  0
 22 30  2  0
 23 24  1  0
 23 25  2  0
 25 26  1  0
 26 27  1  0
 26 28  2  0
 28 29  1  0
 28 30  1  0
 30 31  1  0
M  END
$$$$
