
     RDKit          3D

 19 19  0  0  0  0  0  0  0  0999 V2000
  -20.2762   19.0912   27.3220 Br  0  0  0  0  0  0  0  0  0  0  0  0
  -18.5144   18.7008   26.8308 C   0  0  0  0  0  0  0  0  0  0  0  0
  -17.8173   17.7097   27.4515 C   0  0  0  0  0  0  0  0  0  0  0  0
  -18.2468   17.1343   28.2269 H   0  0  0  0  0  0  0  0  0  0  0  0
  -16.4717   17.4159   27.0755 C   0  0  0  0  0  0  0  0  0  0  0  0
  -15.7774   16.5430   27.6124 O   0  0  0  0  0  0  0  0  0  0  0  0
  -15.9041   18.1690   26.0428 N   0  0  0  0  0  0  0  0  0  0  0  0
  -14.5295   17.8985   25.6181 C   0  0  0  0  0  0  0  0  0  0  0  0
  -14.3451   16.8177   25.6521 H   0  0  0  0  0  0  0  0  0  0  0  0
  -14.3987   18.1857   24.5666 H   0  0  0  0  0  0  0  0  0  0  0  0
  -13.5028   18.6134   26.4948 C   0  0  0  0  0  0  0  0  0  0  0  0
  -13.8112   19.6380   26.7265 H   0  0  0  0  0  0  0  0  0  0  0  0
  -12.5351   18.6665   25.9849 H   0  0  0  0  0  0  0  0  0  0  0  0
  -13.3172   17.9074   27.7161 O   0  0  0  0  0  0  0  0  0  0  0  0
  -12.8544   17.0770   27.5040 H   0  0  0  0  0  0  0  0  0  0  0  0
  -16.6155   19.1847   25.4134 C   0  0  0  0  0  0  0  0  0  0  0  0
  -16.0981   19.7080   24.6469 H   0  0  0  0  0  0  0  0  0  0  0  0
  -17.8980   19.4531   25.7918 C   0  0  0  0  0  0  0  0  0  0  0  0
  -18.4486   20.2247   25.3175 H   0  0  0  0  0  0  0  0  0  0  0  0
  1  2  1  0
  2  3  2  0
  2 18  1  0
  3  4  1  0
  3  5  1  0
  5  6  2  0
  5  7  1  0
  7  8  1  0
  7 16  1  0
  8  9  1  0
  8 10  1  0
  8 11  1  0
 11 12  1  0
 11 13  1  0
 11 14  1  0
 14 15  1  0
 16 17  1  0
 16 18  2  0
 18 19  1  0
M  END
$$$$
