
     RDKit          3D

 29 30  0  0  0  0  0  0  0  0999 V2000
  -19.5196   12.6615   28.2739 O   0  0  0  0  0  0  0  0  0  0  0  0
  -20.5176   12.3500   27.6505 C   0  0  0  0  0  0  0  0  0  0  0  0
  -20.4103   11.5692   26.5934 N   0  0  0  0  0  0  0  0  0  0  0  0
  -19.4779   11.2844   26.3390 H   0  0  0  0  0  0  0  0  0  0  0  0
  -21.2043   11.3260   26.0280 H   0  0  0  0  0  0  0  0  0  0  0  0
  -21.9063   12.8311   27.9819 C   0  0  0  0  0  0  0  0  0  0  0  0
  -21.8132   13.4695   28.8692 H   0  0  0  0  0  0  0  0  0  0  0  0
  -22.2842   13.4496   27.1610 H   0  0  0  0  0  0  0  0  0  0  0  0
  -22.8588   11.6828   28.2871 C   0  0  0  0  0  0  0  0  0  0  0  0
  -22.2890   10.8427   28.7018 H   0  0  0  0  0  0  0  0  0  0  0  0
  -23.3577   11.2989   27.3919 H   0  0  0  0  0  0  0  0  0  0  0  0
  -23.8735   12.0491   29.2927 N   0  0  0  0  0  0  0  0  0  0  0  0
  -23.9632   11.5459   30.5191 C   0  0  0  0  0  0  0  0  0  0  0  0
  -23.0895   10.5115   31.1395 C   0  0  0  0  0  0  0  0  0  0  0  0
  -23.4292   10.3566   32.1647 H   0  0  0  0  0  0  0  0  0  0  0  0
  -22.0666   10.8850   31.1226 H   0  0  0  0  0  0  0  0  0  0  0  0
  -23.1983    9.5983   30.5529 H   0  0  0  0  0  0  0  0  0  0  0  0
  -24.9816   12.1189   31.1198 N   0  0  0  0  0  0  0  0  0  0  0  0
  -25.2694   11.9023   32.0881 H   0  0  0  0  0  0  0  0  0  0  0  0
  -25.6178   12.9979   30.2825 C   0  0  0  0  0  0  0  0  0  0  0  0
  -24.9245   12.9581   29.0964 C   0  0  0  0  0  0  0  0  0  0  0  0
  -25.3236   13.7252   27.9969 C   0  0  0  0  0  0  0  0  0  0  0  0
  -24.8020   13.6846   27.0766 H   0  0  0  0  0  0  0  0  0  0  0  0
  -26.4363   14.5450   28.1545 C   0  0  0  0  0  0  0  0  0  0  0  0
  -26.7677   15.1457   27.3436 H   0  0  0  0  0  0  0  0  0  0  0  0
  -27.1403   14.5903   29.3837 C   0  0  0  0  0  0  0  0  0  0  0  0
  -27.9858   15.2271   29.4737 H   0  0  0  0  0  0  0  0  0  0  0  0
  -26.7374   13.8134   30.4645 C   0  0  0  0  0  0  0  0  0  0  0  0
  -27.2587   13.8346   31.3868 H   0  0  0  0  0  0  0  0  0  0  0  0
  1  2  2  0
  2  3  1  0
  2  6  1  0
  3  4  1  0
  3  5  1  0
  6  7  1  0
  6  8  1  0
  6  9  1  0
  9 10  1  0
  9 11  1  0
  9 12  1  0
 12 13  2  0
 12 21  1  0
 13 14  1  0
 13 18  1  0
 14 15  1  0
 14 16  1  0
 14 17  1  0
 18 19  1  0
 18 20  1  0
 20 21  1  0
 20 28  2  0
 21 22  2  0
 22 23  1  0
 22 24  1  0
 24 25  1  0
 24 26  2  0
 26 27  1  0
 26 28  1  0
 28 29  1  0
M  END
$$$$
