
     RDKit          3D

 14 14  0  0  0  0  0  0  0  0999 V2000
  -25.7161   14.2505   26.6046 O   0  0  0  0  0  0  0  0  0  0  0  0
  -24.9705   13.2622   26.8512 C   0  0  0  0  0  0  0  0  0  0  0  0
  -24.4839   12.5902   25.8942 O   0  0  0  0  0  0  0  0  0  0  0  0
  -24.6714   12.9005   28.2309 C   0  0  0  0  0  0  0  0  0  0  0  0
  -23.7866   11.9310   28.6729 C   0  0  0  0  0  0  0  0  0  0  0  0
  -22.9551   11.0574   27.7796 C   0  0  0  0  0  0  0  0  0  0  0  0
  -22.3377   10.3674   28.3640 H   0  0  0  0  0  0  0  0  0  0  0  0
  -22.2799   11.6627   27.1664 H   0  0  0  0  0  0  0  0  0  0  0  0
  -23.5941   10.4524   27.1277 H   0  0  0  0  0  0  0  0  0  0  0  0
  -23.7305   11.8331   30.0726 C   0  0  0  0  0  0  0  0  0  0  0  0
  -23.1083   11.1487   30.5883 H   0  0  0  0  0  0  0  0  0  0  0  0
  -24.5605   12.7123   30.7050 C   0  0  0  0  0  0  0  0  0  0  0  0
  -24.6984   12.8327   31.7482 H   0  0  0  0  0  0  0  0  0  0  0  0
  -25.4338   13.6852   29.5856 S   0  0  0  0  0  0  0  0  0  0  0  0
  1  2  1  0
  2  3  2  0
  2  4  1  0
  4  5  2  0
  4 14  1  0
  5  6  1  0
  5 10  1  0
  6  7  1  0
  6  8  1  0
  6  9  1  0
 10 11  1  0
 10 12  2  0
 12 13  1  0
 12 14  1  0
M  END
$$$$
