
     RDKit          3D

 17 18  0  0  0  0  0  0  0  0999 V2000
  -22.7367   10.8650   32.6179 Br  0  0  0  0  0  0  0  0  0  0  0  0
  -23.2027   11.4076   30.8675 C   0  0  0  0  0  0  0  0  0  0  0  0
  -23.8084   12.6449   30.6617 C   0  0  0  0  0  0  0  0  0  0  0  0
  -24.0177   13.2951   31.4700 H   0  0  0  0  0  0  0  0  0  0  0  0
  -24.1328   12.9973   29.3585 C   0  0  0  0  0  0  0  0  0  0  0  0
  -24.7359   14.1671   28.9206 N   0  0  0  0  0  0  0  0  0  0  0  0
  -25.0416   14.9634   29.4930 H   0  0  0  0  0  0  0  0  0  0  0  0
  -24.8956   14.1593   27.5761 C   0  0  0  0  0  0  0  0  0  0  0  0
  -25.4058   15.0957   27.0071 O   0  0  0  0  0  0  0  0  0  0  0  0
  -24.3460   12.8488   27.0175 C   0  0  0  0  0  0  0  0  0  0  0  0
  -25.1473   12.2860   26.5332 H   0  0  0  0  0  0  0  0  0  0  0  0
  -23.5158   13.0547   26.3379 H   0  0  0  0  0  0  0  0  0  0  0  0
  -23.8801   12.1814   28.2743 C   0  0  0  0  0  0  0  0  0  0  0  0
  -23.2735   10.9468   28.4791 C   0  0  0  0  0  0  0  0  0  0  0  0
  -23.0692   10.3042   27.6602 H   0  0  0  0  0  0  0  0  0  0  0  0
  -22.9356   10.5624   29.7795 C   0  0  0  0  0  0  0  0  0  0  0  0
  -22.4731    9.6243   29.9481 H   0  0  0  0  0  0  0  0  0  0  0  0
  1  2  1  0
  2  3  1  0
  2 16  2  0
  3  4  1  0
  3  5  2  0
  5  6  1  0
  5 13  1  0
  6  7  1  0
  6  8  1  0
  8  9  2  0
  8 10  1  0
 10 11  1  0
 10 12  1  0
 10 13  1  0
 13 14  2  0
 14 15  1  0
 14 16  1  0
 16 17  1  0
M  END
$$$$
