
     RDKit          3D

 24 24  0  0  0  0  0  0  0  0999 V2000
  -17.3100   20.3777   25.6677 O   0  0  0  0  0  0  0  0  0  0  0  0
  -17.7901   19.2802   25.9223 C   0  0  0  0  0  0  0  0  0  0  0  0
  -19.1215   19.0429   26.0721 O   0  0  0  0  0  0  0  0  0  0  0  0
  -19.9583   20.1975   25.9276 C   0  0  0  0  0  0  0  0  0  0  0  0
  -19.6559   20.9651   26.6479 H   0  0  0  0  0  0  0  0  0  0  0  0
  -19.8709   20.5905   24.9088 H   0  0  0  0  0  0  0  0  0  0  0  0
  -21.3908   19.7792   26.1953 C   0  0  0  0  0  0  0  0  0  0  0  0
  -21.4890   19.3607   27.2029 H   0  0  0  0  0  0  0  0  0  0  0  0
  -21.7003   18.9971   25.4937 H   0  0  0  0  0  0  0  0  0  0  0  0
  -22.0709   20.6303   26.0983 H   0  0  0  0  0  0  0  0  0  0  0  0
  -17.0190   18.1581   26.0833 N   0  0  0  0  0  0  0  0  0  0  0  0
  -15.5646   18.2137   25.9413 C   0  0  0  0  0  0  0  0  0  0  0  0
  -15.3236   17.6800   25.0146 H   0  0  0  0  0  0  0  0  0  0  0  0
  -15.2112   19.2450   25.8417 H   0  0  0  0  0  0  0  0  0  0  0  0
  -14.8834   17.5299   27.1269 C   0  0  0  0  0  0  0  0  0  0  0  0
  -15.0480   18.0900   28.0555 H   0  0  0  0  0  0  0  0  0  0  0  0
  -13.8036   17.4706   26.9565 H   0  0  0  0  0  0  0  0  0  0  0  0
  -15.3738   16.1919   27.2959 O   0  0  0  0  0  0  0  0  0  0  0  0
  -16.7873   16.1953   27.5471 C   0  0  0  0  0  0  0  0  0  0  0  0
  -17.1045   15.1568   27.6851 H   0  0  0  0  0  0  0  0  0  0  0  0
  -16.9810   16.7339   28.4829 H   0  0  0  0  0  0  0  0  0  0  0  0
  -17.5491   16.8254   26.3801 C   0  0  0  0  0  0  0  0  0  0  0  0
  -18.6198   16.8512   26.6004 H   0  0  0  0  0  0  0  0  0  0  0  0
  -17.4036   16.2272   25.4734 H   0  0  0  0  0  0  0  0  0  0  0  0
  1  2  2  0
  2  3  1  0
  2 11  1  0
  3  4  1  0
  4  5  1  0
  4  6  1  0
  4  7  1  0
  7  8  1  0
  7  9  1  0
  7 10  1  0
 11 12  1  0
 11 22  1  0
 12 13  1  0
 12 14  1  0
 12 15  1  0
 15 16  1  0
 15 17  1  0
 15 18  1  0
 18 19  1  0
 19 20  1  0
 19 21  1  0
 19 22  1  0
 22 23  1  0
 22 24  1  0
M  END
$$$$
