
     RDKit          3D

 30 31  0  0  0  0  0  0  0  0999 V2000
  -18.9841   18.8472   27.4701 N   0  0  0  0  0  0  0  0  0  0  0  0
  -20.0586   19.2116   26.5265 C   0  0  0  0  0  0  0  0  0  0  0  0
  -20.4250   18.3410   25.9756 H   0  0  0  0  0  0  0  0  0  0  0  0
  -20.9363   19.5647   27.0826 H   0  0  0  0  0  0  0  0  0  0  0  0
  -19.6081   20.3249   25.5927 C   0  0  0  0  0  0  0  0  0  0  0  0
  -18.7086   20.0555   25.0328 H   0  0  0  0  0  0  0  0  0  0  0  0
  -19.3817   21.2383   26.1538 H   0  0  0  0  0  0  0  0  0  0  0  0
  -20.4000   20.5600   24.8740 H   0  0  0  0  0  0  0  0  0  0  0  0
  -18.8856   19.7671   28.6211 C   0  0  0  0  0  0  0  0  0  0  0  0
  -17.8398   19.9597   28.8836 H   0  0  0  0  0  0  0  0  0  0  0  0
  -19.2992   20.7494   28.3592 H   0  0  0  0  0  0  0  0  0  0  0  0
  -19.6460   19.2181   29.8203 C   0  0  0  0  0  0  0  0  0  0  0  0
  -19.2428   18.2546   30.1461 H   0  0  0  0  0  0  0  0  0  0  0  0
  -20.7041   19.0720   29.5822 H   0  0  0  0  0  0  0  0  0  0  0  0
  -19.5795   19.9157   30.6610 H   0  0  0  0  0  0  0  0  0  0  0  0
  -18.1109   17.7145   27.3017 C   0  0  0  0  0  0  0  0  0  0  0  0
  -16.6765   17.8331   27.3974 N   0  0  0  0  0  0  0  0  0  0  0  0
  -15.9091   18.9175   27.6445 N   0  0  0  0  0  0  0  0  0  0  0  0
  -14.7096   18.4242   27.6130 C   0  0  0  0  0  0  0  0  0  0  0  0
  -13.8486   19.0261   27.7724 H   0  0  0  0  0  0  0  0  0  0  0  0
  -14.6219   17.1127   27.3675 N   0  0  0  0  0  0  0  0  0  0  0  0
  -15.8620   16.7402   27.2330 C   0  0  0  0  0  0  0  0  0  0  0  0
  -16.3482   15.4717   26.9660 N   0  0  0  0  0  0  0  0  0  0  0  0
  -17.6285   15.3164   26.8714 C   0  0  0  0  0  0  0  0  0  0  0  0
  -18.1822   13.9481   26.5827 C   0  0  0  0  0  0  0  0  0  0  0  0
  -19.2728   13.9613   26.5212 H   0  0  0  0  0  0  0  0  0  0  0  0
  -17.8802   13.2615   27.3787 H   0  0  0  0  0  0  0  0  0  0  0  0
  -17.7783   13.5894   25.6311 H   0  0  0  0  0  0  0  0  0  0  0  0
  -18.5847   16.4425   27.0381 C   0  0  0  0  0  0  0  0  0  0  0  0
  -19.6192   16.2660   26.9419 H   0  0  0  0  0  0  0  0  0  0  0  0
  1  2  1  0
  1  9  1  0
  1 16  1  0
  2  3  1  0
  2  4  1  0
  2  5  1  0
  5  6  1  0
  5  7  1  0
  5  8  1  0
  9 10  1  0
  9 11  1  0
  9 12  1  0
 12 13  1  0
 12 14  1  0
 12 15  1  0
 16 17  1  0
 16 29  2  0
 17 18  1  0
 17 22  1  0
 18 19  2  0
 19 20  1  0
 19 21  1  0
 21 22  2  0
 22 23  1  0
 23 24  2  0
 24 25  1  0
 24 29  1  0
 25 26  1  0
 25 27  1  0
 25 28  1  0
 29 30  1  0
M  END
$$$$
