
     RDKit          3D

 19 19  0  0  0  0  0  0  0  0999 V2000
  -20.5171   13.5437   28.1946 O   0  0  0  0  0  0  0  0  0  0  0  0
  -21.1502   12.7257   27.5427 C   0  0  0  0  0  0  0  0  0  0  0  0
  -20.5608   11.8672   26.7226 N   0  0  0  0  0  0  0  0  0  0  0  0
  -21.1120   11.2145   26.1923 H   0  0  0  0  0  0  0  0  0  0  0  0
  -19.1242   11.8329   26.5484 C   0  0  0  0  0  0  0  0  0  0  0  0
  -18.6523   11.9330   27.5319 H   0  0  0  0  0  0  0  0  0  0  0  0
  -18.8418   10.8580   26.1366 H   0  0  0  0  0  0  0  0  0  0  0  0
  -18.7212   12.9403   25.6424 C   0  0  0  0  0  0  0  0  0  0  0  0
  -18.0806   14.0837   25.9823 C   0  0  0  0  0  0  0  0  0  0  0  0
  -17.7331   14.4469   26.9153 H   0  0  0  0  0  0  0  0  0  0  0  0
  -17.9286   14.7746   24.8322 N   0  0  0  0  0  0  0  0  0  0  0  0
  -17.4689   15.7002   24.7458 H   0  0  0  0  0  0  0  0  0  0  0  0
  -18.4581   14.1139   23.7698 N   0  0  0  0  0  0  0  0  0  0  0  0
  -18.9329   13.0060   24.2689 C   0  0  0  0  0  0  0  0  0  0  0  0
  -19.4185   12.2664   23.6827 H   0  0  0  0  0  0  0  0  0  0  0  0
  -22.6508   12.6484   27.5960 C   0  0  0  0  0  0  0  0  0  0  0  0
  -23.0047   11.6462   27.3385 H   0  0  0  0  0  0  0  0  0  0  0  0
  -23.0713   13.3695   26.8910 H   0  0  0  0  0  0  0  0  0  0  0  0
  -22.9904   12.8859   28.6080 H   0  0  0  0  0  0  0  0  0  0  0  0
  1  2  2  0
  2  3  1  0
  2 16  1  0
  3  4  1  0
  3  5  1  0
  5  6  1  0
  5  7  1  0
  5  8  1  0
  8  9  2  0
  8 14  1  0
  9 10  1  0
  9 11  1  0
 11 12  1  0
 11 13  1  0
 13 14  2  0
 14 15  1  0
 16 17  1  0
 16 18  1  0
 16 19  1  0
M  END
$$$$
