
     RDKit          3D

 24 25  0  0  0  0  0  0  0  0999 V2000
  -19.7056   10.5467   25.5879 F   0  0  0  0  0  0  0  0  0  0  0  0
  -19.6740   11.8001   26.0624 C   0  0  0  0  0  0  0  0  0  0  0  0
  -20.6713   12.2855   26.9281 C   0  0  0  0  0  0  0  0  0  0  0  0
  -21.7849   11.5622   27.3361 N   0  0  0  0  0  0  0  0  0  0  0  0
  -21.9890   10.7050   26.8335 H   0  0  0  0  0  0  0  0  0  0  0  0
  -22.7144   11.8769   28.4037 C   0  0  0  0  0  0  0  0  0  0  0  0
  -23.2782   11.0173   28.7687 H   0  0  0  0  0  0  0  0  0  0  0  0
  -22.1310   12.2412   29.2580 H   0  0  0  0  0  0  0  0  0  0  0  0
  -23.6955   12.9187   28.0031 C   0  0  0  0  0  0  0  0  0  0  0  0
  -24.6216   12.6884   27.0445 N   0  0  0  0  0  0  0  0  0  0  0  0
  -24.7063   11.8011   26.5093 H   0  0  0  0  0  0  0  0  0  0  0  0
  -25.4256   13.7635   26.8358 N   0  0  0  0  0  0  0  0  0  0  0  0
  -24.9948   14.6676   27.6734 C   0  0  0  0  0  0  0  0  0  0  0  0
  -25.4221   15.6346   27.7569 H   0  0  0  0  0  0  0  0  0  0  0  0
  -23.9235   14.1858   28.4161 C   0  0  0  0  0  0  0  0  0  0  0  0
  -23.3889   14.7144   29.1640 H   0  0  0  0  0  0  0  0  0  0  0  0
  -20.5573   13.5892   27.4159 C   0  0  0  0  0  0  0  0  0  0  0  0
  -21.2863   13.9684   28.0850 H   0  0  0  0  0  0  0  0  0  0  0  0
  -19.4892   14.3904   27.0169 C   0  0  0  0  0  0  0  0  0  0  0  0
  -19.4100   15.3824   27.3864 H   0  0  0  0  0  0  0  0  0  0  0  0
  -18.5189   13.9009   26.1404 C   0  0  0  0  0  0  0  0  0  0  0  0
  -17.7101   14.5203   25.8461 H   0  0  0  0  0  0  0  0  0  0  0  0
  -18.6089   12.5948   25.6630 C   0  0  0  0  0  0  0  0  0  0  0  0
  -17.8727   12.2065   25.0071 H   0  0  0  0  0  0  0  0  0  0  0  0
  1  2  1  0
  2  3  1  0
  2 23  2  0
  3  4  1  0
  3 17  2  0
  4  5  1  0
  4  6  1  0
  6  7  1  0
  6  8  1  0
  6  9  1  0
  9 10  1  0
  9 15  2  0
 10 11  1  0
 10 12  1  0
 12 13  2  0
 13 14  1  0
 13 15  1  0
 15 16  1  0
 17 18  1  0
 17 19  1  0
 19 20  1  0
 19 21  2  0
 21 22  1  0
 21 23  1  0
 23 24  1  0
M  END
$$$$
