
     RDKit          3D

 26 26  0  0  0  0  0  0  0  0999 V2000
  -18.6317   12.8921   26.0301 S   0  0  0  0  0  0  0  0  0  0  0  0
  -17.9940   11.6069   26.2162 O   0  0  0  0  0  0  0  0  0  0  0  0
  -18.2086   14.0641   26.7666 O   0  0  0  0  0  0  0  0  0  0  0  0
  -20.2878   12.7271   26.2909 N   0  0  0  0  0  0  0  0  0  0  0  0
  -20.7545   12.0580   25.6735 H   0  0  0  0  0  0  0  0  0  0  0  0
  -20.8280   12.8571   27.6576 C   0  0  0  0  0  0  0  0  0  0  0  0
  -20.2271   12.2226   28.3185 H   0  0  0  0  0  0  0  0  0  0  0  0
  -20.7535   13.8908   28.0125 H   0  0  0  0  0  0  0  0  0  0  0  0
  -22.2830   12.3841   27.7009 C   0  0  0  0  0  0  0  0  0  0  0  0
  -22.9038   12.9863   27.0248 H   0  0  0  0  0  0  0  0  0  0  0  0
  -22.3366   11.3563   27.3199 H   0  0  0  0  0  0  0  0  0  0  0  0
  -22.8743   12.4141   29.0933 C   0  0  0  0  0  0  0  0  0  0  0  0
  -23.3117   13.6248   29.6434 C   0  0  0  0  0  0  0  0  0  0  0  0
  -23.2180   14.5249   29.0935 H   0  0  0  0  0  0  0  0  0  0  0  0
  -23.8722   13.6539   30.9181 C   0  0  0  0  0  0  0  0  0  0  0  0
  -24.2064   14.5638   31.3451 H   0  0  0  0  0  0  0  0  0  0  0  0
  -23.9893   12.4656   31.6248 C   0  0  0  0  0  0  0  0  0  0  0  0
  -24.5288   12.4921   32.8520 F   0  0  0  0  0  0  0  0  0  0  0  0
  -23.5690   11.2515   31.1014 C   0  0  0  0  0  0  0  0  0  0  0  0
  -23.6783   10.3611   31.6630 H   0  0  0  0  0  0  0  0  0  0  0  0
  -23.0077   11.2308   29.8268 C   0  0  0  0  0  0  0  0  0  0  0  0
  -22.6895   10.3083   29.4108 H   0  0  0  0  0  0  0  0  0  0  0  0
  -18.5800   13.2955   24.2974 C   0  0  0  0  0  0  0  0  0  0  0  0
  -18.9578   12.4508   23.7187 H   0  0  0  0  0  0  0  0  0  0  0  0
  -17.5389   13.4878   24.0286 H   0  0  0  0  0  0  0  0  0  0  0  0
  -19.1781   14.1916   24.1239 H   0  0  0  0  0  0  0  0  0  0  0  0
  1  2  2  0
  1  3  2  0
  1  4  1  0
  1 23  1  0
  4  5  1  0
  4  6  1  0
  6  7  1  0
  6  8  1  0
  6  9  1  0
  9 10  1  0
  9 11  1  0
  9 12  1  0
 12 13  1  0
 12 21  2  0
 13 14  1  0
 13 15  2  0
 15 16  1  0
 15 17  1  0
 17 18  1  0
 17 19  2  0
 19 20  1  0
 19 21  1  0
 21 22  1  0
 23 24  1  0
 23 25  1  0
 23 26  1  0
M  END
$$$$
