
     RDKit          3D

 23 24  0  0  0  0  0  0  0  0999 V2000
  -17.9437   15.0520   26.6555 C   0  0  0  0  0  0  0  0  0  0  0  0
  -18.8344   15.3844   26.1159 H   0  0  0  0  0  0  0  0  0  0  0  0
  -18.2311   14.5707   27.5931 H   0  0  0  0  0  0  0  0  0  0  0  0
  -17.3787   14.3579   26.0290 H   0  0  0  0  0  0  0  0  0  0  0  0
  -17.1111   16.1823   26.9644 N   0  0  0  0  0  0  0  0  0  0  0  0
  -15.8355   15.9896   27.3312 N   0  0  0  0  0  0  0  0  0  0  0  0
  -15.3045   17.1655   27.5692 N   0  0  0  0  0  0  0  0  0  0  0  0
  -16.2633   18.0864   27.3407 C   0  0  0  0  0  0  0  0  0  0  0  0
  -17.3986   17.4849   26.9513 C   0  0  0  0  0  0  0  0  0  0  0  0
  -18.6753   18.1509   26.5828 C   0  0  0  0  0  0  0  0  0  0  0  0
  -18.7760   18.1114   25.4905 H   0  0  0  0  0  0  0  0  0  0  0  0
  -19.5280   17.6064   26.9998 H   0  0  0  0  0  0  0  0  0  0  0  0
  -18.6496   19.6353   27.0223 C   0  0  0  0  0  0  0  0  0  0  0  0
  -19.1854   19.7901   28.4492 C   0  0  0  0  0  0  0  0  0  0  0  0
  -19.0751   18.8026   29.2095 O   0  0  0  0  0  0  0  0  0  0  0  0
  -19.7347   20.8709   28.7528 O   0  0  0  0  0  0  0  0  0  0  0  0
  -17.2618   20.2900   26.7972 C   0  0  0  0  0  0  0  0  0  0  0  0
  -17.0610   20.2954   25.7169 H   0  0  0  0  0  0  0  0  0  0  0  0
  -17.2667   21.3395   27.1145 H   0  0  0  0  0  0  0  0  0  0  0  0
  -16.1076   19.5479   27.5078 C   0  0  0  0  0  0  0  0  0  0  0  0
  -16.1039   19.7890   28.5768 H   0  0  0  0  0  0  0  0  0  0  0  0
  -15.1484   19.8808   27.0951 H   0  0  0  0  0  0  0  0  0  0  0  0
  -19.3749   20.1766   26.3994 H   0  0  0  0  0  0  0  0  0  0  0  0
  1  2  1  0
  1  3  1  0
  1  4  1  0
  1  5  1  0
  5  6  1  0
  5  9  1  0
  6  7  2  0
  7  8  1  0
  8  9  2  0
  8 20  1  0
  9 10  1  0
 10 11  1  0
 10 12  1  0
 10 13  1  0
 13 14  1  0
 13 17  1  0
 13 23  1  0
 14 15  1  0
 14 16  2  0
 17 18  1  0
 17 19  1  0
 17 20  1  0
 20 21  1  0
 20 22  1  0
M  END
$$$$
