
     RDKit          3D

 18 18  0  0  0  0  0  0  0  0999 V2000
  -19.2813   16.2017   27.3651 O   0  0  0  0  0  0  0  0  0  0  0  0
  -18.5116   15.4373   26.8011 C   0  0  0  0  0  0  0  0  0  0  0  0
  -17.2653   15.7765   26.3553 O   0  0  0  0  0  0  0  0  0  0  0  0
  -16.8298   17.1150   26.6402 C   0  0  0  0  0  0  0  0  0  0  0  0
  -16.9187   17.2570   27.7225 H   0  0  0  0  0  0  0  0  0  0  0  0
  -17.4817   17.8551   26.1630 H   0  0  0  0  0  0  0  0  0  0  0  0
  -15.3841   17.2934   26.2186 C   0  0  0  0  0  0  0  0  0  0  0  0
  -15.2702   17.1560   25.1386 H   0  0  0  0  0  0  0  0  0  0  0  0
  -14.7468   16.5461   26.7025 H   0  0  0  0  0  0  0  0  0  0  0  0
  -15.0227   18.2908   26.4844 H   0  0  0  0  0  0  0  0  0  0  0  0
  -18.8420   14.0500   26.5304 C   0  0  0  0  0  0  0  0  0  0  0  0
  -18.3290   13.2515   25.5509 C   0  0  0  0  0  0  0  0  0  0  0  0
  -17.6087   13.4377   24.7965 H   0  0  0  0  0  0  0  0  0  0  0  0
  -18.9332   12.0604   25.6932 N   0  0  0  0  0  0  0  0  0  0  0  0
  -18.7613   11.2275   25.0962 H   0  0  0  0  0  0  0  0  0  0  0  0
  -19.8182   12.0561   26.7272 N   0  0  0  0  0  0  0  0  0  0  0  0
  -19.7575   13.2588   27.2260 C   0  0  0  0  0  0  0  0  0  0  0  0
  -20.3370   13.5774   28.0558 H   0  0  0  0  0  0  0  0  0  0  0  0
  1  2  2  0
  2  3  1  0
  2 11  1  0
  3  4  1  0
  4  5  1  0
  4  6  1  0
  4  7  1  0
  7  8  1  0
  7  9  1  0
  7 10  1  0
 11 12  2  0
 11 17  1  0
 12 13  1  0
 12 14  1  0
 14 15  1  0
 14 16  1  0
 16 17  2  0
 17 18  1  0
M  END
$$$$
