
     RDKit          3D

 19 19  0  0  0  0  0  0  0  0999 V2000
  -22.8656   10.8683   27.8186 Br  0  0  0  0  0  0  0  0  0  0  0  0
  -21.5312   12.1538   27.5935 C   0  0  0  0  0  0  0  0  0  0  0  0
  -20.3533   12.0255   26.9461 C   0  0  0  0  0  0  0  0  0  0  0  0
  -19.9118   11.2061   26.4404 H   0  0  0  0  0  0  0  0  0  0  0  0
  -19.7384   13.2234   27.0600 N   0  0  0  0  0  0  0  0  0  0  0  0
  -18.4488   13.6218   26.5319 C   0  0  0  0  0  0  0  0  0  0  0  0
  -17.7139   13.4856   27.3331 H   0  0  0  0  0  0  0  0  0  0  0  0
  -18.2087   12.9300   25.7178 H   0  0  0  0  0  0  0  0  0  0  0  0
  -18.4611   15.0578   26.0307 C   0  0  0  0  0  0  0  0  0  0  0  0
  -19.2599   15.2172   25.2968 H   0  0  0  0  0  0  0  0  0  0  0  0
  -17.4976   15.2835   25.5609 H   0  0  0  0  0  0  0  0  0  0  0  0
  -18.6386   15.9402   27.1424 O   0  0  0  0  0  0  0  0  0  0  0  0
  -18.6529   17.3024   26.7360 C   0  0  0  0  0  0  0  0  0  0  0  0
  -18.7769   17.9257   27.6252 H   0  0  0  0  0  0  0  0  0  0  0  0
  -19.4904   17.4899   26.0579 H   0  0  0  0  0  0  0  0  0  0  0  0
  -17.7087   17.5673   26.2511 H   0  0  0  0  0  0  0  0  0  0  0  0
  -20.4884   14.1136   27.7680 N   0  0  0  0  0  0  0  0  0  0  0  0
  -21.5739   13.4546   28.0837 C   0  0  0  0  0  0  0  0  0  0  0  0
  -22.3699   13.8740   28.6434 H   0  0  0  0  0  0  0  0  0  0  0  0
  1  2  1  0
  2  3  2  0
  2 18  1  0
  3  4  1  0
  3  5  1  0
  5  6  1  0
  5 17  1  0
  6  7  1  0
  6  8  1  0
  6  9  1  0
  9 10  1  0
  9 11  1  0
  9 12  1  0
 12 13  1  0
 13 14  1  0
 13 15  1  0
 13 16  1  0
 17 18  2  0
 18 19  1  0
M  END
$$$$
