
     RDKit          3D

 19 19  0  0  0  0  0  0  0  0999 V2000
  -19.1003   12.5714   28.4136 O   0  0  0  0  0  0  0  0  0  0  0  0
  -19.6180   12.2183   27.3637 C   0  0  0  0  0  0  0  0  0  0  0  0
  -20.9260   12.2904   27.1618 N   0  0  0  0  0  0  0  0  0  0  0  0
  -21.3211   11.9810   26.2904 H   0  0  0  0  0  0  0  0  0  0  0  0
  -21.8324   12.8008   28.1685 C   0  0  0  0  0  0  0  0  0  0  0  0
  -21.6190   12.2955   29.1167 H   0  0  0  0  0  0  0  0  0  0  0  0
  -21.6409   13.8705   28.3059 H   0  0  0  0  0  0  0  0  0  0  0  0
  -23.2307   12.5534   27.7291 C   0  0  0  0  0  0  0  0  0  0  0  0
  -23.7738   11.3710   27.3547 C   0  0  0  0  0  0  0  0  0  0  0  0
  -23.3631   10.3965   27.2861 H   0  0  0  0  0  0  0  0  0  0  0  0
  -25.0607   11.6397   27.0467 N   0  0  0  0  0  0  0  0  0  0  0  0
  -25.7576   10.9426   26.7245 H   0  0  0  0  0  0  0  0  0  0  0  0
  -25.3557   12.9564   27.2044 N   0  0  0  0  0  0  0  0  0  0  0  0
  -24.2444   13.5000   27.6187 C   0  0  0  0  0  0  0  0  0  0  0  0
  -24.1492   14.5350   27.8334 H   0  0  0  0  0  0  0  0  0  0  0  0
  -18.8155   11.6454   26.2288 C   0  0  0  0  0  0  0  0  0  0  0  0
  -19.3187   11.8010   25.2703 H   0  0  0  0  0  0  0  0  0  0  0  0
  -18.6791   10.5737   26.3924 H   0  0  0  0  0  0  0  0  0  0  0  0
  -17.8392   12.1365   26.1908 H   0  0  0  0  0  0  0  0  0  0  0  0
  1  2  2  0
  2  3  1  0
  2 16  1  0
  3  4  1  0
  3  5  1  0
  5  6  1  0
  5  7  1  0
  5  8  1  0
  8  9  2  0
  8 14  1  0
  9 10  1  0
  9 11  1  0
 11 12  1  0
 11 13  1  0
 13 14  2  0
 14 15  1  0
 16 17  1  0
 16 18  1  0
 16 19  1  0
M  END
$$$$
