
     RDKit          3D

 26 26  0  0  0  0  0  0  0  0999 V2000
  -25.5948   12.9717   31.9587 F   0  0  0  0  0  0  0  0  0  0  0  0
  -24.8058   11.9878   31.4994 C   0  0  0  0  0  0  0  0  0  0  0  0
  -24.1868   12.0524   30.2376 C   0  0  0  0  0  0  0  0  0  0  0  0
  -24.3334   13.1644   29.3931 N   0  0  0  0  0  0  0  0  0  0  0  0
  -25.0734   12.9706   28.1237 C   0  0  0  0  0  0  0  0  0  0  0  0
  -24.1340   12.4920   27.0013 C   0  0  0  0  0  0  0  0  0  0  0  0
  -23.5727   11.6082   27.3232 H   0  0  0  0  0  0  0  0  0  0  0  0
  -23.4066   13.2630   26.7289 H   0  0  0  0  0  0  0  0  0  0  0  0
  -24.8562   12.1445   25.8216 O   0  0  0  0  0  0  0  0  0  0  0  0
  -25.3962   11.3751   26.0771 H   0  0  0  0  0  0  0  0  0  0  0  0
  -25.8494   14.2244   27.7021 C   0  0  0  0  0  0  0  0  0  0  0  0
  -26.5248   13.9868   26.8724 H   0  0  0  0  0  0  0  0  0  0  0  0
  -25.1942   15.0296   27.3569 H   0  0  0  0  0  0  0  0  0  0  0  0
  -26.4572   14.6061   28.5283 H   0  0  0  0  0  0  0  0  0  0  0  0
  -23.7820   14.4598   29.7632 C   0  0  0  0  0  0  0  0  0  0  0  0
  -24.3975   14.9375   30.5325 H   0  0  0  0  0  0  0  0  0  0  0  0
  -23.7248   15.1470   28.9139 H   0  0  0  0  0  0  0  0  0  0  0  0
  -22.7509   14.3641   30.1239 H   0  0  0  0  0  0  0  0  0  0  0  0
  -23.4134   11.0518   29.7887 N   0  0  0  0  0  0  0  0  0  0  0  0
  -23.2494    9.9709   30.5616 C   0  0  0  0  0  0  0  0  0  0  0  0
  -22.6397    9.1882   30.1893 H   0  0  0  0  0  0  0  0  0  0  0  0
  -23.8467    9.8485   31.8177 C   0  0  0  0  0  0  0  0  0  0  0  0
  -23.6898    8.9750   32.3950 H   0  0  0  0  0  0  0  0  0  0  0  0
  -24.6457   10.8783   32.3075 C   0  0  0  0  0  0  0  0  0  0  0  0
  -25.1125   10.8223   33.2566 H   0  0  0  0  0  0  0  0  0  0  0  0
  -25.8472   12.2037   28.2638 H   0  0  0  0  0  0  0  0  0  0  0  0
  1  2  1  0
  2  3  1  0
  2 24  2  0
  3  4  1  0
  3 19  2  0
  4  5  1  0
  4 15  1  0
  5  6  1  0
  5 11  1  0
  5 26  1  0
  6  7  1  0
  6  8  1  0
  6  9  1  0
  9 10  1  0
 11 12  1  0
 11 13  1  0
 11 14  1  0
 15 16  1  0
 15 17  1  0
 15 18  1  0
 19 20  1  0
 20 21  1  0
 20 22  2  0
 22 23  1  0
 22 24  1  0
 24 25  1  0
M  END
$$$$
