
     RDKit          3D

 29 31  0  0  0  0  0  0  0  0999 V2000
  -18.6552   12.7571   28.0647 O   0  0  0  0  0  0  0  0  0  0  0  0
  -19.1804   13.1969   27.0665 C   0  0  0  0  0  0  0  0  0  0  0  0
  -20.5331   13.3062   26.9569 N   0  0  0  0  0  0  0  0  0  0  0  0
  -20.8916   13.6677   26.0691 H   0  0  0  0  0  0  0  0  0  0  0  0
  -21.5192   12.9963   27.8641 C   0  0  0  0  0  0  0  0  0  0  0  0
  -23.1960   13.3189   27.5453 S   0  0  0  0  0  0  0  0  0  0  0  0
  -23.5656   12.6407   29.0928 C   0  0  0  0  0  0  0  0  0  0  0  0
  -22.3877   12.2294   29.7150 C   0  0  0  0  0  0  0  0  0  0  0  0
  -21.2181   12.4401   28.9951 N   0  0  0  0  0  0  0  0  0  0  0  0
  -22.4617   11.6453   30.9904 C   0  0  0  0  0  0  0  0  0  0  0  0
  -21.5707   11.3320   31.4679 H   0  0  0  0  0  0  0  0  0  0  0  0
  -23.6926   11.4861   31.6106 C   0  0  0  0  0  0  0  0  0  0  0  0
  -23.7442   11.0450   32.5715 H   0  0  0  0  0  0  0  0  0  0  0  0
  -24.8702   11.9113   30.9554 C   0  0  0  0  0  0  0  0  0  0  0  0
  -26.1394   11.8043   31.4672 O   0  0  0  0  0  0  0  0  0  0  0  0
  -26.7623   12.9996   31.9233 C   0  0  0  0  0  0  0  0  0  0  0  0
  -26.8944   13.7131   31.1030 H   0  0  0  0  0  0  0  0  0  0  0  0
  -27.7562   12.7367   32.2978 H   0  0  0  0  0  0  0  0  0  0  0  0
  -26.2022   13.4457   32.7516 H   0  0  0  0  0  0  0  0  0  0  0  0
  -24.8195   12.4884   29.6999 C   0  0  0  0  0  0  0  0  0  0  0  0
  -25.7031   12.8078   29.2119 H   0  0  0  0  0  0  0  0  0  0  0  0
  -18.3984   13.6653   25.9014 C   0  0  0  0  0  0  0  0  0  0  0  0
  -18.0376   12.8586   25.2690 H   0  0  0  0  0  0  0  0  0  0  0  0
  -17.5503   14.9125   25.9830 C   0  0  0  0  0  0  0  0  0  0  0  0
  -17.5410   15.4910   26.9001 H   0  0  0  0  0  0  0  0  0  0  0  0
  -16.6104   14.9216   25.4446 H   0  0  0  0  0  0  0  0  0  0  0  0
  -18.8165   14.9228   25.1784 C   0  0  0  0  0  0  0  0  0  0  0  0
  -18.7350   14.9353   24.0983 H   0  0  0  0  0  0  0  0  0  0  0  0
  -19.6616   15.4825   25.5652 H   0  0  0  0  0  0  0  0  0  0  0  0
  1  2  2  0
  2  3  1  0
  2 22  1  0
  3  4  1  0
  3  5  1  0
  5  6  1  0
  5  9  2  0
  6  7  1  0
  7  8  1  0
  7 20  2  0
  8  9  1  0
  8 10  2  0
 10 11  1  0
 10 12  1  0
 12 13  1  0
 12 14  2  0
 14 15  1  0
 14 20  1  0
 15 16  1  0
 16 17  1  0
 16 18  1  0
 16 19  1  0
 20 21  1  0
 22 23  1  0
 22 24  1  0
 22 27  1  0
 24 25  1  0
 24 26  1  0
 24 27  1  0
 27 28  1  0
 27 29  1  0
M  END
$$$$
