
     RDKit          3D

 32 33  0  0  0  0  0  0  0  0999 V2000
  -22.2017   13.9787   28.8491 O   0  0  0  0  0  0  0  0  0  0  0  0
  -22.3764   12.7792   28.7613 C   0  0  0  0  0  0  0  0  0  0  0  0
  -21.6285   12.0249   27.9023 N   0  0  0  0  0  0  0  0  0  0  0  0
  -21.8653   11.0279   27.9090 H   0  0  0  0  0  0  0  0  0  0  0  0
  -20.6207   12.4410   27.0456 C   0  0  0  0  0  0  0  0  0  0  0  0
  -20.1132   13.6837   26.9118 C   0  0  0  0  0  0  0  0  0  0  0  0
  -20.3393   14.5942   27.4013 H   0  0  0  0  0  0  0  0  0  0  0  0
  -19.1629   13.5706   25.9530 N   0  0  0  0  0  0  0  0  0  0  0  0
  -18.3154   14.6159   25.4194 C   0  0  0  0  0  0  0  0  0  0  0  0
  -17.5839   14.1420   24.7561 H   0  0  0  0  0  0  0  0  0  0  0  0
  -18.9426   15.2777   24.8120 H   0  0  0  0  0  0  0  0  0  0  0  0
  -17.6196   15.4070   26.5128 C   0  0  0  0  0  0  0  0  0  0  0  0
  -16.9773   14.7613   27.1208 H   0  0  0  0  0  0  0  0  0  0  0  0
  -18.3471   15.8789   27.1824 H   0  0  0  0  0  0  0  0  0  0  0  0
  -16.9974   16.1936   26.0758 H   0  0  0  0  0  0  0  0  0  0  0  0
  -19.0530   12.2935   25.4823 N   0  0  0  0  0  0  0  0  0  0  0  0
  -19.9467   11.6128   26.1527 C   0  0  0  0  0  0  0  0  0  0  0  0
  -20.1142   10.5758   26.0180 H   0  0  0  0  0  0  0  0  0  0  0  0
  -23.4338   12.0466   29.5736 C   0  0  0  0  0  0  0  0  0  0  0  0
  -24.0208   11.4484   28.8653 H   0  0  0  0  0  0  0  0  0  0  0  0
  -22.8245   11.1267   30.6399 C   0  0  0  0  0  0  0  0  0  0  0  0
  -22.8222   10.0813   30.3135 H   0  0  0  0  0  0  0  0  0  0  0  0
  -21.7870   11.3920   30.8706 H   0  0  0  0  0  0  0  0  0  0  0  0
  -23.6978   11.3133   31.8725 C   0  0  0  0  0  0  0  0  0  0  0  0
  -24.5833   10.6700   31.8084 H   0  0  0  0  0  0  0  0  0  0  0  0
  -23.1675   11.0729   32.7981 H   0  0  0  0  0  0  0  0  0  0  0  0
  -24.1056   12.7741   31.8010 C   0  0  0  0  0  0  0  0  0  0  0  0
  -23.2820   13.4151   32.1338 H   0  0  0  0  0  0  0  0  0  0  0  0
  -24.9783   12.9926   32.4227 H   0  0  0  0  0  0  0  0  0  0  0  0
  -24.3852   12.9943   30.3194 C   0  0  0  0  0  0  0  0  0  0  0  0
  -24.2762   14.0466   30.0385 H   0  0  0  0  0  0  0  0  0  0  0  0
  -25.4221   12.7065   30.1023 H   0  0  0  0  0  0  0  0  0  0  0  0
  1  2  2  0
  2  3  1  0
  2 19  1  0
  3  4  1  0
  3  5  1  0
  5  6  2  0
  5 17  1  0
  6  7  1  0
  6  8  1  0
  8  9  1  0
  8 16  1  0
  9 10  1  0
  9 11  1  0
  9 12  1  0
 12 13  1  0
 12 14  1  0
 12 15  1  0
 16 17  2  0
 17 18  1  0
 19 20  1  0
 19 21  1  0
 19 30  1  0
 21 22  1  0
 21 23  1  0
 21 24  1  0
 24 25  1  0
 24 26  1  0
 24 27  1  0
 27 28  1  0
 27 29  1  0
 27 30  1  0
 30 31  1  0
 30 32  1  0
M  END
$$$$
