
     RDKit          3D

 29 30  0  0  0  0  0  0  0  0999 V2000
  -16.6764   20.3141   25.4468 C   0  0  0  0  0  0  0  0  0  0  0  0
  -17.5013   20.4823   24.7456 H   0  0  0  0  0  0  0  0  0  0  0  0
  -15.9166   19.7043   24.9432 H   0  0  0  0  0  0  0  0  0  0  0  0
  -16.2071   21.2788   25.6694 H   0  0  0  0  0  0  0  0  0  0  0  0
  -17.1590   19.6435   26.7288 C   0  0  0  0  0  0  0  0  0  0  0  0
  -16.0450   19.4752   27.6062 O   0  0  0  0  0  0  0  0  0  0  0  0
  -16.3793   19.0779   28.4263 H   0  0  0  0  0  0  0  0  0  0  0  0
  -17.8330   18.3368   26.4532 C   0  0  0  0  0  0  0  0  0  0  0  0
  -19.1886   18.1428   26.2095 C   0  0  0  0  0  0  0  0  0  0  0  0
  -19.9284   18.9004   26.1923 H   0  0  0  0  0  0  0  0  0  0  0  0
  -19.4568   16.8843   25.9968 N   0  0  0  0  0  0  0  0  0  0  0  0
  -18.2565   16.2443   26.1028 N   0  0  0  0  0  0  0  0  0  0  0  0
  -18.1541   14.8150   25.9286 C   0  0  0  0  0  0  0  0  0  0  0  0
  -17.1507   14.5167   26.2603 H   0  0  0  0  0  0  0  0  0  0  0  0
  -19.1935   14.0074   26.7036 C   0  0  0  0  0  0  0  0  0  0  0  0
  -18.9724   13.9637   27.7752 H   0  0  0  0  0  0  0  0  0  0  0  0
  -20.1985   14.4332   26.5933 H   0  0  0  0  0  0  0  0  0  0  0  0
  -19.1497   12.6289   26.0518 C   0  0  0  0  0  0  0  0  0  0  0  0
  -18.4706   11.9688   26.6037 H   0  0  0  0  0  0  0  0  0  0  0  0
  -20.1372   12.1566   26.0534 H   0  0  0  0  0  0  0  0  0  0  0  0
  -18.6225   12.8428   24.6324 C   0  0  0  0  0  0  0  0  0  0  0  0
  -19.3319   12.4894   23.8775 H   0  0  0  0  0  0  0  0  0  0  0  0
  -17.6912   12.2804   24.4941 H   0  0  0  0  0  0  0  0  0  0  0  0
  -18.3638   14.3394   24.4922 C   0  0  0  0  0  0  0  0  0  0  0  0
  -19.2358   14.8214   24.0322 H   0  0  0  0  0  0  0  0  0  0  0  0
  -17.4992   14.5498   23.8540 H   0  0  0  0  0  0  0  0  0  0  0  0
  -17.2606   17.1127   26.3770 C   0  0  0  0  0  0  0  0  0  0  0  0
  -16.2525   16.8104   26.4987 H   0  0  0  0  0  0  0  0  0  0  0  0
  -17.8661   20.3094   27.2381 H   0  0  0  0  0  0  0  0  0  0  0  0
  1  2  1  0
  1  3  1  0
  1  4  1  0
  1  5  1  0
  5  6  1  0
  5  8  1  0
  5 29  1  0
  6  7  1  0
  8  9  1  0
  8 27  2  0
  9 10  1  0
  9 11  2  0
 11 12  1  0
 12 13  1  0
 12 27  1  0
 13 14  1  0
 13 15  1  0
 13 24  1  0
 15 16  1  0
 15 17  1  0
 15 18  1  0
 18 19  1  0
 18 20  1  0
 18 21  1  0
 21 22  1  0
 21 23  1  0
 21 24  1  0
 24 25  1  0
 24 26  1  0
 27 28  1  0
M  END
$$$$
