
     RDKit          3D

 22 22  0  0  0  0  0  0  0  0999 V2000
  -19.1752   11.5193   26.1734 O   0  0  0  0  0  0  0  0  0  0  0  0
  -19.0289   10.9353   25.4091 H   0  0  0  0  0  0  0  0  0  0  0  0
  -18.7841   12.8306   25.7760 C   0  0  0  0  0  0  0  0  0  0  0  0
  -17.7976   12.7772   25.3027 H   0  0  0  0  0  0  0  0  0  0  0  0
  -19.5118   13.1827   25.0380 H   0  0  0  0  0  0  0  0  0  0  0  0
  -18.7794   13.7652   26.9840 C   0  0  0  0  0  0  0  0  0  0  0  0
  -19.8113   13.8994   27.3310 H   0  0  0  0  0  0  0  0  0  0  0  0
  -18.2140   13.3105   27.8077 H   0  0  0  0  0  0  0  0  0  0  0  0
  -18.1911   15.1070   26.6791 C   0  0  0  0  0  0  0  0  0  0  0  0
  -17.0448   15.6279   27.1715 C   0  0  0  0  0  0  0  0  0  0  0  0
  -16.3328   15.2418   27.8527 H   0  0  0  0  0  0  0  0  0  0  0  0
  -16.9217   16.8513   26.6115 N   0  0  0  0  0  0  0  0  0  0  0  0
  -15.8617   17.8166   26.8061 C   0  0  0  0  0  0  0  0  0  0  0  0
  -16.2958   18.8161   26.6958 H   0  0  0  0  0  0  0  0  0  0  0  0
  -15.5054   17.7162   27.8370 H   0  0  0  0  0  0  0  0  0  0  0  0
  -14.7232   17.6233   25.8204 C   0  0  0  0  0  0  0  0  0  0  0  0
  -15.0746   17.7254   24.7871 H   0  0  0  0  0  0  0  0  0  0  0  0
  -14.2747   16.6295   25.9227 H   0  0  0  0  0  0  0  0  0  0  0  0
  -13.9420   18.3705   25.9908 H   0  0  0  0  0  0  0  0  0  0  0  0
  -17.9555   17.1314   25.7794 N   0  0  0  0  0  0  0  0  0  0  0  0
  -18.7166   16.0716   25.8238 C   0  0  0  0  0  0  0  0  0  0  0  0
  -19.6209   15.9762   25.2741 H   0  0  0  0  0  0  0  0  0  0  0  0
  1  2  1  0
  1  3  1  0
  3  4  1  0
  3  5  1  0
  3  6  1  0
  6  7  1  0
  6  8  1  0
  6  9  1  0
  9 10  2  0
  9 21  1  0
 10 11  1  0
 10 12  1  0
 12 13  1  0
 12 20  1  0
 13 14  1  0
 13 15  1  0
 13 16  1  0
 16 17  1  0
 16 18  1  0
 16 19  1  0
 20 21  2  0
 21 22  1  0
M  END
$$$$
