
     RDKit          3D

 19 19  0  0  0  0  0  0  0  0999 V2000
  -27.0528   15.5071   28.9619 Br  0  0  0  0  0  0  0  0  0  0  0  0
  -25.6034   14.3554   28.6967 C   0  0  0  0  0  0  0  0  0  0  0  0
  -25.4423   13.6916   27.5190 C   0  0  0  0  0  0  0  0  0  0  0  0
  -26.1281   13.8046   26.7229 H   0  0  0  0  0  0  0  0  0  0  0  0
  -24.3358   12.8115   27.3208 C   0  0  0  0  0  0  0  0  0  0  0  0
  -24.1429   12.1641   26.2835 O   0  0  0  0  0  0  0  0  0  0  0  0
  -23.4212   12.6678   28.3689 N   0  0  0  0  0  0  0  0  0  0  0  0
  -22.2670   11.7817   28.2086 C   0  0  0  0  0  0  0  0  0  0  0  0
  -22.0416   11.3017   29.1689 H   0  0  0  0  0  0  0  0  0  0  0  0
  -22.5162   10.9620   27.5221 H   0  0  0  0  0  0  0  0  0  0  0  0
  -21.0292   12.5289   27.7153 C   0  0  0  0  0  0  0  0  0  0  0  0
  -20.1603   11.8673   27.6386 H   0  0  0  0  0  0  0  0  0  0  0  0
  -20.7694   13.3373   28.4068 H   0  0  0  0  0  0  0  0  0  0  0  0
  -21.2753   13.1059   26.4382 O   0  0  0  0  0  0  0  0  0  0  0  0
  -21.4628   12.3759   25.8211 H   0  0  0  0  0  0  0  0  0  0  0  0
  -23.5899   13.3421   29.5733 C   0  0  0  0  0  0  0  0  0  0  0  0
  -22.8491   13.1629   30.3138 H   0  0  0  0  0  0  0  0  0  0  0  0
  -24.6571   14.1740   29.7442 C   0  0  0  0  0  0  0  0  0  0  0  0
  -24.7938   14.6929   30.6582 H   0  0  0  0  0  0  0  0  0  0  0  0
  1  2  1  0
  2  3  2  0
  2 18  1  0
  3  4  1  0
  3  5  1  0
  5  6  2  0
  5  7  1  0
  7  8  1  0
  7 16  1  0
  8  9  1  0
  8 10  1  0
  8 11  1  0
 11 12  1  0
 11 13  1  0
 11 14  1  0
 14 15  1  0
 16 17  1  0
 16 18  2  0
 18 19  1  0
M  END
$$$$
