
     RDKit          3D

 24 24  0  0  0  0  0  0  0  0999 V2000
  -22.6664   11.4960   30.1670 O   0  0  0  0  0  0  0  0  0  0  0  0
  -23.3165   12.5244   30.3072 C   0  0  0  0  0  0  0  0  0  0  0  0
  -23.6769   13.0441   31.5120 O   0  0  0  0  0  0  0  0  0  0  0  0
  -23.2777   12.2651   32.6469 C   0  0  0  0  0  0  0  0  0  0  0  0
  -23.7379   11.2727   32.5939 H   0  0  0  0  0  0  0  0  0  0  0  0
  -22.1867   12.1673   32.6611 H   0  0  0  0  0  0  0  0  0  0  0  0
  -23.7452   12.9807   33.8991 C   0  0  0  0  0  0  0  0  0  0  0  0
  -24.8331   13.1081   33.8877 H   0  0  0  0  0  0  0  0  0  0  0  0
  -23.3073   13.9832   33.9550 H   0  0  0  0  0  0  0  0  0  0  0  0
  -23.4643   12.4218   34.7964 H   0  0  0  0  0  0  0  0  0  0  0  0
  -23.7534   13.2706   29.2435 N   0  0  0  0  0  0  0  0  0  0  0  0
  -23.4469   12.8785   27.8683 C   0  0  0  0  0  0  0  0  0  0  0  0
  -22.7263   13.6132   27.4906 H   0  0  0  0  0  0  0  0  0  0  0  0
  -22.9774   11.8904   27.8290 H   0  0  0  0  0  0  0  0  0  0  0  0
  -24.7113   12.9015   27.0095 C   0  0  0  0  0  0  0  0  0  0  0  0
  -25.4168   12.1219   27.3218 H   0  0  0  0  0  0  0  0  0  0  0  0
  -24.4557   12.7232   25.9600 H   0  0  0  0  0  0  0  0  0  0  0  0
  -25.3611   14.1785   27.0907 O   0  0  0  0  0  0  0  0  0  0  0  0
  -25.7465   14.4689   28.4429 C   0  0  0  0  0  0  0  0  0  0  0  0
  -26.2505   15.4404   28.4451 H   0  0  0  0  0  0  0  0  0  0  0  0
  -26.4689   13.7139   28.7767 H   0  0  0  0  0  0  0  0  0  0  0  0
  -24.5256   14.5094   29.3632 C   0  0  0  0  0  0  0  0  0  0  0  0
  -24.8381   14.6981   30.3940 H   0  0  0  0  0  0  0  0  0  0  0  0
  -23.8553   15.3209   29.0579 H   0  0  0  0  0  0  0  0  0  0  0  0
  1  2  2  0
  2  3  1  0
  2 11  1  0
  3  4  1  0
  4  5  1  0
  4  6  1  0
  4  7  1  0
  7  8  1  0
  7  9  1  0
  7 10  1  0
 11 12  1  0
 11 22  1  0
 12 13  1  0
 12 14  1  0
 12 15  1  0
 15 16  1  0
 15 17  1  0
 15 18  1  0
 18 19  1  0
 19 20  1  0
 19 21  1  0
 19 22  1  0
 22 23  1  0
 22 24  1  0
M  END
$$$$
