
     RDKit          3D

 24 24  0  0  0  0  0  0  0  0999 V2000
  -23.6075   12.7812   26.3530 O   0  0  0  0  0  0  0  0  0  0  0  0
  -23.2677   13.3009   27.4085 C   0  0  0  0  0  0  0  0  0  0  0  0
  -22.0017   13.2669   27.9061 O   0  0  0  0  0  0  0  0  0  0  0  0
  -21.0677   12.5124   27.1233 C   0  0  0  0  0  0  0  0  0  0  0  0
  -21.3606   11.4571   27.1151 H   0  0  0  0  0  0  0  0  0  0  0  0
  -21.0485   12.8996   26.0987 H   0  0  0  0  0  0  0  0  0  0  0  0
  -19.6964   12.6590   27.7532 C   0  0  0  0  0  0  0  0  0  0  0  0
  -19.7060   12.2983   28.7875 H   0  0  0  0  0  0  0  0  0  0  0  0
  -19.3990   13.7126   27.7857 H   0  0  0  0  0  0  0  0  0  0  0  0
  -18.9458   12.0970   27.1901 H   0  0  0  0  0  0  0  0  0  0  0  0
  -24.1457   13.9842   28.2095 N   0  0  0  0  0  0  0  0  0  0  0  0
  -25.5491   14.1422   27.8301 C   0  0  0  0  0  0  0  0  0  0  0  0
  -25.6832   15.1997   27.5742 H   0  0  0  0  0  0  0  0  0  0  0  0
  -25.7946   13.5447   26.9462 H   0  0  0  0  0  0  0  0  0  0  0  0
  -26.4652   13.7693   28.9957 C   0  0  0  0  0  0  0  0  0  0  0  0
  -26.4044   12.6975   29.2204 H   0  0  0  0  0  0  0  0  0  0  0  0
  -27.5053   14.0021   28.7453 H   0  0  0  0  0  0  0  0  0  0  0  0
  -26.1218   14.5133   30.1738 O   0  0  0  0  0  0  0  0  0  0  0  0
  -24.7710   14.2376   30.5746 C   0  0  0  0  0  0  0  0  0  0  0  0
  -24.5680   14.8138   31.4828 H   0  0  0  0  0  0  0  0  0  0  0  0
  -24.6845   13.1730   30.8248 H   0  0  0  0  0  0  0  0  0  0  0  0
  -23.7831   14.6278   29.4742 C   0  0  0  0  0  0  0  0  0  0  0  0
  -22.7628   14.3812   29.7804 H   0  0  0  0  0  0  0  0  0  0  0  0
  -23.8319   15.7079   29.2951 H   0  0  0  0  0  0  0  0  0  0  0  0
  1  2  2  0
  2  3  1  0
  2 11  1  0
  3  4  1  0
  4  5  1  0
  4  6  1  0
  4  7  1  0
  7  8  1  0
  7  9  1  0
  7 10  1  0
 11 12  1  0
 11 22  1  0
 12 13  1  0
 12 14  1  0
 12 15  1  0
 15 16  1  0
 15 17  1  0
 15 18  1  0
 18 19  1  0
 19 20  1  0
 19 21  1  0
 19 22  1  0
 22 23  1  0
 22 24  1  0
M  END
$$$$
