
     RDKit          3D

 39 40  0  0  0  0  0  0  0  0999 V2000
  -15.7708   18.2381   25.9194 O   0  0  0  0  0  0  0  0  0  0  0  0
  -16.6931   17.6778   26.5032 C   0  0  0  0  0  0  0  0  0  0  0  0
  -16.8490   16.1596   26.4307 C   0  0  0  0  0  0  0  0  0  0  0  0
  -15.9694   15.7689   25.9054 H   0  0  0  0  0  0  0  0  0  0  0  0
  -16.8037   15.7269   27.4377 H   0  0  0  0  0  0  0  0  0  0  0  0
  -17.9975   15.7042   25.7350 O   0  0  0  0  0  0  0  0  0  0  0  0
  -18.2075   14.3540   25.6161 C   0  0  0  0  0  0  0  0  0  0  0  0
  -18.2837   13.4462   26.6716 C   0  0  0  0  0  0  0  0  0  0  0  0
  -18.1695   13.7627   27.6753 H   0  0  0  0  0  0  0  0  0  0  0  0
  -18.5101   12.1007   26.3992 C   0  0  0  0  0  0  0  0  0  0  0  0
  -18.5746   11.4077   27.1995 H   0  0  0  0  0  0  0  0  0  0  0  0
  -18.6497   11.6588   25.0833 C   0  0  0  0  0  0  0  0  0  0  0  0
  -18.9266   10.2102   24.7971 C   0  0  0  0  0  0  0  0  0  0  0  0
  -20.0067   10.0348   24.7766 H   0  0  0  0  0  0  0  0  0  0  0  0
  -18.5005    9.9130   23.8341 H   0  0  0  0  0  0  0  0  0  0  0  0
  -18.4786    9.5682   25.5624 H   0  0  0  0  0  0  0  0  0  0  0  0
  -18.5608   12.5764   24.0354 C   0  0  0  0  0  0  0  0  0  0  0  0
  -18.6602   12.2482   23.0333 H   0  0  0  0  0  0  0  0  0  0  0  0
  -18.3356   13.9237   24.2996 C   0  0  0  0  0  0  0  0  0  0  0  0
  -18.2587   14.6209   23.5057 H   0  0  0  0  0  0  0  0  0  0  0  0
  -17.5862   18.4305   27.1967 N   0  0  0  0  0  0  0  0  0  0  0  0
  -17.3499   19.8692   27.3846 C   0  0  0  0  0  0  0  0  0  0  0  0
  -17.1224   20.0140   28.4485 H   0  0  0  0  0  0  0  0  0  0  0  0
  -16.4774   20.2138   26.8217 H   0  0  0  0  0  0  0  0  0  0  0  0
  -18.5686   20.7081   26.9912 C   0  0  0  0  0  0  0  0  0  0  0  0
  -18.7912   20.6197   25.9227 H   0  0  0  0  0  0  0  0  0  0  0  0
  -18.4203   21.7586   27.2574 H   0  0  0  0  0  0  0  0  0  0  0  0
  -19.7922   20.2155   27.7483 N   0  0  0  0  0  0  0  0  0  0  0  0
  -19.5959   20.3165   28.7544 H   0  0  0  0  0  0  0  0  0  0  0  0
  -21.0029   21.0544   27.4593 C   0  0  0  0  0  0  0  0  0  0  0  0
  -21.8267   20.6830   28.0745 H   0  0  0  0  0  0  0  0  0  0  0  0
  -20.7709   22.0881   27.7306 H   0  0  0  0  0  0  0  0  0  0  0  0
  -21.2403   20.9724   26.3956 H   0  0  0  0  0  0  0  0  0  0  0  0
  -20.0448   18.7429   27.4750 C   0  0  0  0  0  0  0  0  0  0  0  0
  -20.2864   18.6496   26.4107 H   0  0  0  0  0  0  0  0  0  0  0  0
  -20.9051   18.4383   28.0788 H   0  0  0  0  0  0  0  0  0  0  0  0
  -18.8036   17.9132   27.8365 C   0  0  0  0  0  0  0  0  0  0  0  0
  -18.9961   16.8755   27.5596 H   0  0  0  0  0  0  0  0  0  0  0  0
  -18.6326   17.9425   28.9197 H   0  0  0  0  0  0  0  0  0  0  0  0
  1  2  2  0
  2  3  1  0
  2 21  1  0
  3  4  1  0
  3  5  1  0
  3  6  1  0
  6  7  1  0
  7  8  1  0
  7 19  2  0
  8  9  1  0
  8 10  2  0
 10 11  1  0
 10 12  1  0
 12 13  1  0
 12 17  2  0
 13 14  1  0
 13 15  1  0
 13 16  1  0
 17 18  1  0
 17 19  1  0
 19 20  1  0
 21 22  1  0
 21 37  1  0
 22 23  1  0
 22 24  1  0
 22 25  1  0
 25 26  1  0
 25 27  1  0
 25 28  1  0
 28 29  1  0
 28 30  1  0
 28 34  1  0
 30 31  1  0
 30 32  1  0
 30 33  1  0
 34 35  1  0
 34 36  1  0
 34 37  1  0
 37 38  1  0
 37 39  1  0
M  END
$$$$
