
     RDKit          3D

 26 26  0  0  0  0  0  0  0  0999 V2000
  -15.6575   17.7691   26.9943 S   0  0  0  0  0  0  0  0  0  0  0  0
  -15.3765   16.8982   28.1147 O   0  0  0  0  0  0  0  0  0  0  0  0
  -15.9580   19.1729   27.1796 O   0  0  0  0  0  0  0  0  0  0  0  0
  -16.9237   17.1169   26.0948 N   0  0  0  0  0  0  0  0  0  0  0  0
  -16.9136   17.3602   25.1011 H   0  0  0  0  0  0  0  0  0  0  0  0
  -17.4609   15.7888   26.4469 C   0  0  0  0  0  0  0  0  0  0  0  0
  -16.6973   15.0418   26.2034 H   0  0  0  0  0  0  0  0  0  0  0  0
  -17.6755   15.7239   27.5192 H   0  0  0  0  0  0  0  0  0  0  0  0
  -18.7234   15.4937   25.6336 C   0  0  0  0  0  0  0  0  0  0  0  0
  -19.5151   16.2142   25.8767 H   0  0  0  0  0  0  0  0  0  0  0  0
  -18.5045   15.6383   24.5680 H   0  0  0  0  0  0  0  0  0  0  0  0
  -19.2409   14.0859   25.8332 C   0  0  0  0  0  0  0  0  0  0  0  0
  -19.7416   13.6931   27.0800 C   0  0  0  0  0  0  0  0  0  0  0  0
  -19.7475   14.3743   27.8908 H   0  0  0  0  0  0  0  0  0  0  0  0
  -20.2346   12.4033   27.2630 C   0  0  0  0  0  0  0  0  0  0  0  0
  -20.6156   12.0944   28.2018 H   0  0  0  0  0  0  0  0  0  0  0  0
  -20.2212   11.5235   26.1903 C   0  0  0  0  0  0  0  0  0  0  0  0
  -20.6956   10.2816   26.3649 F   0  0  0  0  0  0  0  0  0  0  0  0
  -19.7358   11.8884   24.9429 C   0  0  0  0  0  0  0  0  0  0  0  0
  -19.7455   11.1961   24.1425 H   0  0  0  0  0  0  0  0  0  0  0  0
  -19.2427   13.1793   24.7682 C   0  0  0  0  0  0  0  0  0  0  0  0
  -18.8760   13.4745   23.8176 H   0  0  0  0  0  0  0  0  0  0  0  0
  -14.3041   17.6540   25.8442 C   0  0  0  0  0  0  0  0  0  0  0  0
  -14.0980   16.6031   25.6335 H   0  0  0  0  0  0  0  0  0  0  0  0
  -13.4288   18.1132   26.3091 H   0  0  0  0  0  0  0  0  0  0  0  0
  -14.5656   18.1951   24.9334 H   0  0  0  0  0  0  0  0  0  0  0  0
  1  2  2  0
  1  3  2  0
  1  4  1  0
  1 23  1  0
  4  5  1  0
  4  6  1  0
  6  7  1  0
  6  8  1  0
  6  9  1  0
  9 10  1  0
  9 11  1  0
  9 12  1  0
 12 13  1  0
 12 21  2  0
 13 14  1  0
 13 15  2  0
 15 16  1  0
 15 17  1  0
 17 18  1  0
 17 19  2  0
 19 20  1  0
 19 21  1  0
 21 22  1  0
 23 24  1  0
 23 25  1  0
 23 26  1  0
M  END
$$$$
