
     RDKit          3D

 19 19  0  0  0  0  0  0  0  0999 V2000
  -22.2544   12.3146   28.1388 Br  0  0  0  0  0  0  0  0  0  0  0  0
  -23.7854   13.3552   27.9000 C   0  0  0  0  0  0  0  0  0  0  0  0
  -24.2360   14.3627   28.6778 C   0  0  0  0  0  0  0  0  0  0  0  0
  -23.8599   14.7850   29.5735 H   0  0  0  0  0  0  0  0  0  0  0  0
  -25.3745   14.7973   28.0940 N   0  0  0  0  0  0  0  0  0  0  0  0
  -26.2473   15.8719   28.5233 C   0  0  0  0  0  0  0  0  0  0  0  0
  -27.2079   15.7325   28.0151 H   0  0  0  0  0  0  0  0  0  0  0  0
  -26.4017   15.7479   29.6003 H   0  0  0  0  0  0  0  0  0  0  0  0
  -25.6539   17.2391   28.2195 C   0  0  0  0  0  0  0  0  0  0  0  0
  -26.3545   18.0432   28.4733 H   0  0  0  0  0  0  0  0  0  0  0  0
  -25.4165   17.2994   27.1517 H   0  0  0  0  0  0  0  0  0  0  0  0
  -24.4411   17.3983   28.9609 O   0  0  0  0  0  0  0  0  0  0  0  0
  -23.8672   18.6835   28.7614 C   0  0  0  0  0  0  0  0  0  0  0  0
  -22.9411   18.7405   29.3390 H   0  0  0  0  0  0  0  0  0  0  0  0
  -24.5475   19.4644   29.1133 H   0  0  0  0  0  0  0  0  0  0  0  0
  -23.6311   18.8376   27.7043 H   0  0  0  0  0  0  0  0  0  0  0  0
  -25.6682   14.0913   26.9664 N   0  0  0  0  0  0  0  0  0  0  0  0
  -24.6964   13.2218   26.8577 C   0  0  0  0  0  0  0  0  0  0  0  0
  -24.6310   12.5140   26.0718 H   0  0  0  0  0  0  0  0  0  0  0  0
  1  2  1  0
  2  3  2  0
  2 18  1  0
  3  4  1  0
  3  5  1  0
  5  6  1  0
  5 17  1  0
  6  7  1  0
  6  8  1  0
  6  9  1  0
  9 10  1  0
  9 11  1  0
  9 12  1  0
 12 13  1  0
 13 14  1  0
 13 15  1  0
 13 16  1  0
 17 18  2  0
 18 19  1  0
M  END
$$$$
