
     RDKit          3D

 27 28  0  0  0  0  0  0  0  0999 V2000
  -14.7978   16.4561   25.7777 F   0  0  0  0  0  0  0  0  0  0  0  0
  -15.6689   17.4789   25.7709 C   0  0  0  0  0  0  0  0  0  0  0  0
  -17.0070   17.2496   26.1180 C   0  0  0  0  0  0  0  0  0  0  0  0
  -17.3879   15.9591   26.4590 N   0  0  0  0  0  0  0  0  0  0  0  0
  -16.6446   15.3025   26.6784 H   0  0  0  0  0  0  0  0  0  0  0  0
  -18.7521   15.4751   26.5299 C   0  0  0  0  0  0  0  0  0  0  0  0
  -19.2059   15.7970   27.4759 H   0  0  0  0  0  0  0  0  0  0  0  0
  -19.3382   15.9336   25.7229 H   0  0  0  0  0  0  0  0  0  0  0  0
  -18.8911   13.9858   26.4363 C   0  0  0  0  0  0  0  0  0  0  0  0
  -18.4556   13.1816   25.4347 C   0  0  0  0  0  0  0  0  0  0  0  0
  -17.7437   13.4604   24.1658 C   0  0  0  0  0  0  0  0  0  0  0  0
  -17.0305   14.2800   24.2911 H   0  0  0  0  0  0  0  0  0  0  0  0
  -18.4580   13.7430   23.3860 H   0  0  0  0  0  0  0  0  0  0  0  0
  -17.1865   12.5831   23.8202 H   0  0  0  0  0  0  0  0  0  0  0  0
  -18.8224   11.9308   25.8025 N   0  0  0  0  0  0  0  0  0  0  0  0
  -18.6412   11.0720   25.2494 H   0  0  0  0  0  0  0  0  0  0  0  0
  -19.4694   11.9097   26.9944 N   0  0  0  0  0  0  0  0  0  0  0  0
  -19.5094   13.1579   27.3678 C   0  0  0  0  0  0  0  0  0  0  0  0
  -19.9648   13.4769   28.2707 H   0  0  0  0  0  0  0  0  0  0  0  0
  -17.9023   18.3233   26.1028 C   0  0  0  0  0  0  0  0  0  0  0  0
  -18.9215   18.1671   26.3403 H   0  0  0  0  0  0  0  0  0  0  0  0
  -17.4478   19.5961   25.7563 C   0  0  0  0  0  0  0  0  0  0  0  0
  -18.1264   20.4105   25.7434 H   0  0  0  0  0  0  0  0  0  0  0  0
  -16.1088   19.8094   25.4184 C   0  0  0  0  0  0  0  0  0  0  0  0
  -15.7765   20.7802   25.1546 H   0  0  0  0  0  0  0  0  0  0  0  0
  -15.2115   18.7413   25.4239 C   0  0  0  0  0  0  0  0  0  0  0  0
  -14.1936   18.8873   25.1662 H   0  0  0  0  0  0  0  0  0  0  0  0
  1  2  1  0
  2  3  1  0
  2 26  2  0
  3  4  1  0
  3 20  2  0
  4  5  1  0
  4  6  1  0
  6  7  1  0
  6  8  1  0
  6  9  1  0
  9 10  2  0
  9 18  1  0
 10 11  1  0
 10 15  1  0
 11 12  1  0
 11 13  1  0
 11 14  1  0
 15 16  1  0
 15 17  1  0
 17 18  2  0
 18 19  1  0
 20 21  1  0
 20 22  1  0
 22 23  1  0
 22 24  2  0
 24 25  1  0
 24 26  1  0
 26 27  1  0
M  END
$$$$
