
     RDKit          3D

 26 26  0  0  0  0  0  0  0  0999 V2000
  -21.8821   10.3449   27.0848 F   0  0  0  0  0  0  0  0  0  0  0  0
  -21.2132   11.5070   27.1460 C   0  0  0  0  0  0  0  0  0  0  0  0
  -21.6808   12.6008   27.8973 C   0  0  0  0  0  0  0  0  0  0  0  0
  -22.8621   12.5336   28.6532 N   0  0  0  0  0  0  0  0  0  0  0  0
  -23.9304   13.5142   28.3474 C   0  0  0  0  0  0  0  0  0  0  0  0
  -24.0412   14.5777   29.4557 C   0  0  0  0  0  0  0  0  0  0  0  0
  -23.0826   15.0901   29.5912 H   0  0  0  0  0  0  0  0  0  0  0  0
  -24.3145   14.1308   30.4167 H   0  0  0  0  0  0  0  0  0  0  0  0
  -25.0231   15.5639   29.1439 O   0  0  0  0  0  0  0  0  0  0  0  0
  -24.7259   15.9546   28.3026 H   0  0  0  0  0  0  0  0  0  0  0  0
  -25.2835   12.8418   28.0853 C   0  0  0  0  0  0  0  0  0  0  0  0
  -25.9945   13.5726   27.6833 H   0  0  0  0  0  0  0  0  0  0  0  0
  -25.7325   12.4292   28.9935 H   0  0  0  0  0  0  0  0  0  0  0  0
  -25.1852   12.0344   27.3530 H   0  0  0  0  0  0  0  0  0  0  0  0
  -23.0261   11.5278   29.6927 C   0  0  0  0  0  0  0  0  0  0  0  0
  -23.2276   10.5454   29.2531 H   0  0  0  0  0  0  0  0  0  0  0  0
  -23.8519   11.7602   30.3715 H   0  0  0  0  0  0  0  0  0  0  0  0
  -22.1374   11.4693   30.3325 H   0  0  0  0  0  0  0  0  0  0  0  0
  -21.0061   13.7602   27.9343 N   0  0  0  0  0  0  0  0  0  0  0  0
  -19.8757   13.8680   27.2250 C   0  0  0  0  0  0  0  0  0  0  0  0
  -19.3585   14.7922   27.2615 H   0  0  0  0  0  0  0  0  0  0  0  0
  -19.3698   12.8191   26.4546 C   0  0  0  0  0  0  0  0  0  0  0  0
  -18.4719   12.9490   25.9089 H   0  0  0  0  0  0  0  0  0  0  0  0
  -20.0484   11.6040   26.4089 C   0  0  0  0  0  0  0  0  0  0  0  0
  -19.6936   10.7853   25.8382 H   0  0  0  0  0  0  0  0  0  0  0  0
  -23.6950   14.0318   27.4077 H   0  0  0  0  0  0  0  0  0  0  0  0
  1  2  1  0
  2  3  1  0
  2 24  2  0
  3  4  1  0
  3 19  2  0
  4  5  1  0
  4 15  1  0
  5  6  1  0
  5 11  1  0
  5 26  1  0
  6  7  1  0
  6  8  1  0
  6  9  1  0
  9 10  1  0
 11 12  1  0
 11 13  1  0
 11 14  1  0
 15 16  1  0
 15 17  1  0
 15 18  1  0
 19 20  1  0
 20 21  1  0
 20 22  2  0
 22 23  1  0
 22 24  1  0
 24 25  1  0
M  END
$$$$
