
     RDKit          3D

 18 18  0  0  0  0  0  0  0  0999 V2000
  -22.5630   10.9873   27.6797 O   0  0  0  0  0  0  0  0  0  0  0  0
  -21.9775   12.0606   27.6873 C   0  0  0  0  0  0  0  0  0  0  0  0
  -22.4594   13.2060   28.2554 O   0  0  0  0  0  0  0  0  0  0  0  0
  -23.7883   13.1382   28.7957 C   0  0  0  0  0  0  0  0  0  0  0  0
  -23.9438   14.0523   29.3785 H   0  0  0  0  0  0  0  0  0  0  0  0
  -23.8941   12.2936   29.4856 H   0  0  0  0  0  0  0  0  0  0  0  0
  -24.8047   13.0694   27.6724 C   0  0  0  0  0  0  0  0  0  0  0  0
  -24.6687   12.1623   27.0749 H   0  0  0  0  0  0  0  0  0  0  0  0
  -24.6847   13.9186   26.9919 H   0  0  0  0  0  0  0  0  0  0  0  0
  -25.8235   13.0770   28.0700 H   0  0  0  0  0  0  0  0  0  0  0  0
  -20.6741   12.2472   27.0762 C   0  0  0  0  0  0  0  0  0  0  0  0
  -19.9777   11.3521   26.3187 C   0  0  0  0  0  0  0  0  0  0  0  0
  -20.2048   10.3641   26.0104 H   0  0  0  0  0  0  0  0  0  0  0  0
  -18.8338   11.9687   25.9791 N   0  0  0  0  0  0  0  0  0  0  0  0
  -18.0793   11.5521   25.3987 H   0  0  0  0  0  0  0  0  0  0  0  0
  -18.7619   13.2291   26.4875 N   0  0  0  0  0  0  0  0  0  0  0  0
  -19.8743   13.3889   27.1475 C   0  0  0  0  0  0  0  0  0  0  0  0
  -20.1235   14.2805   27.6662 H   0  0  0  0  0  0  0  0  0  0  0  0
  1  2  2  0
  2  3  1  0
  2 11  1  0
  3  4  1  0
  4  5  1  0
  4  6  1  0
  4  7  1  0
  7  8  1  0
  7  9  1  0
  7 10  1  0
 11 12  2  0
 11 17  1  0
 12 13  1  0
 12 14  1  0
 14 15  1  0
 14 16  1  0
 16 17  2  0
 17 18  1  0
M  END
$$$$
