
     RDKit          3D

 23 24  0  0  0  0  0  0  0  0999 V2000
  -13.6624   18.5824   26.2132 N   0  0  0  0  0  0  0  0  0  0  0  0
  -12.7747   18.5293   25.6906 H   0  0  0  0  0  0  0  0  0  0  0  0
  -14.0825   19.4704   25.9038 H   0  0  0  0  0  0  0  0  0  0  0  0
  -14.5430   17.4642   25.7421 C   0  0  0  0  0  0  0  0  0  0  0  0
  -14.8506   17.7119   24.7219 H   0  0  0  0  0  0  0  0  0  0  0  0
  -13.9278   16.5580   25.7372 H   0  0  0  0  0  0  0  0  0  0  0  0
  -15.7168   17.3033   26.6299 C   0  0  0  0  0  0  0  0  0  0  0  0
  -16.7876   18.1076   26.6599 N   0  0  0  0  0  0  0  0  0  0  0  0
  -17.6160   17.6110   27.6072 C   0  0  0  0  0  0  0  0  0  0  0  0
  -17.0649   16.5386   28.1279 N   0  0  0  0  0  0  0  0  0  0  0  0
  -15.8737   16.3516   27.5048 N   0  0  0  0  0  0  0  0  0  0  0  0
  -18.8507   18.2800   27.8608 C   0  0  0  0  0  0  0  0  0  0  0  0
  -19.4996   17.8931   28.6040 H   0  0  0  0  0  0  0  0  0  0  0  0
  -19.1753   19.3995   27.1497 C   0  0  0  0  0  0  0  0  0  0  0  0
  -20.0894   19.9084   27.3273 H   0  0  0  0  0  0  0  0  0  0  0  0
  -18.2756   19.8934   26.1537 C   0  0  0  0  0  0  0  0  0  0  0  0
  -18.5448   20.7642   25.6086 H   0  0  0  0  0  0  0  0  0  0  0  0
  -17.0908   19.2564   25.9080 C   0  0  0  0  0  0  0  0  0  0  0  0
  -16.3706   19.5532   25.1914 H   0  0  0  0  0  0  0  0  0  0  0  0
  -13.4005   18.6134   27.6711 C   0  0  0  0  0  0  0  0  0  0  0  0
  -12.9056   17.6815   27.9521 H   0  0  0  0  0  0  0  0  0  0  0  0
  -14.3554   18.7285   28.1891 H   0  0  0  0  0  0  0  0  0  0  0  0
  -12.7510   19.4690   27.8704 H   0  0  0  0  0  0  0  0  0  0  0  0
  1  2  1  0
  1  3  1  0
  1  4  1  0
  1 20  1  0
  4  5  1  0
  4  6  1  0
  4  7  1  0
  7  8  1  0
  7 11  2  0
  8  9  1  0
  8 18  1  0
  9 10  2  0
  9 12  1  0
 10 11  1  0
 12 13  1  0
 12 14  2  0
 14 15  1  0
 14 16  1  0
 16 17  1  0
 16 18  2  0
 18 19  1  0
 20 21  1  0
 20 22  1  0
 20 23  1  0
M  END
$$$$
