
     RDKit          3D

 19 19  0  0  0  0  0  0  0  0999 V2000
  -16.0954   16.0899   27.8443 O   0  0  0  0  0  0  0  0  0  0  0  0
  -16.1266   16.5713   26.7208 C   0  0  0  0  0  0  0  0  0  0  0  0
  -17.2396   16.6165   26.0024 N   0  0  0  0  0  0  0  0  0  0  0  0
  -17.2285   17.0093   25.0768 H   0  0  0  0  0  0  0  0  0  0  0  0
  -18.4986   16.1064   26.5023 C   0  0  0  0  0  0  0  0  0  0  0  0
  -18.5649   16.3320   27.5722 H   0  0  0  0  0  0  0  0  0  0  0  0
  -19.3172   16.6294   25.9962 H   0  0  0  0  0  0  0  0  0  0  0  0
  -18.5579   14.6417   26.2561 C   0  0  0  0  0  0  0  0  0  0  0  0
  -18.0208   13.9647   25.2137 C   0  0  0  0  0  0  0  0  0  0  0  0
  -17.4644   14.2904   24.3727 H   0  0  0  0  0  0  0  0  0  0  0  0
  -18.3288   12.6666   25.4219 N   0  0  0  0  0  0  0  0  0  0  0  0
  -18.0591   11.8801   24.8019 H   0  0  0  0  0  0  0  0  0  0  0  0
  -19.0518   12.4928   26.5588 N   0  0  0  0  0  0  0  0  0  0  0  0
  -19.1836   13.6914   27.0569 C   0  0  0  0  0  0  0  0  0  0  0  0
  -19.7091   13.8915   27.9570 H   0  0  0  0  0  0  0  0  0  0  0  0
  -14.8982   17.1227   26.0521 C   0  0  0  0  0  0  0  0  0  0  0  0
  -15.1596   17.8759   25.3035 H   0  0  0  0  0  0  0  0  0  0  0  0
  -14.3584   16.3064   25.5663 H   0  0  0  0  0  0  0  0  0  0  0  0
  -14.2553   17.5901   26.8032 H   0  0  0  0  0  0  0  0  0  0  0  0
  1  2  2  0
  2  3  1  0
  2 16  1  0
  3  4  1  0
  3  5  1  0
  5  6  1  0
  5  7  1  0
  5  8  1  0
  8  9  2  0
  8 14  1  0
  9 10  1  0
  9 11  1  0
 11 12  1  0
 11 13  1  0
 13 14  2  0
 14 15  1  0
 16 17  1  0
 16 18  1  0
 16 19  1  0
M  END
$$$$
