
     RDKit          3D

 32 33  0  0  0  0  0  0  0  0999 V2000
  -15.5753   16.1355   27.8679 O   0  0  0  0  0  0  0  0  0  0  0  0
  -15.8061   16.8489   26.9115 C   0  0  0  0  0  0  0  0  0  0  0  0
  -16.7863   16.5238   26.0173 N   0  0  0  0  0  0  0  0  0  0  0  0
  -16.8892   17.1948   25.2496 H   0  0  0  0  0  0  0  0  0  0  0  0
  -17.6281   15.4220   26.0257 C   0  0  0  0  0  0  0  0  0  0  0  0
  -17.7691   14.4996   27.0000 C   0  0  0  0  0  0  0  0  0  0  0  0
  -17.3054   14.3962   27.9455 H   0  0  0  0  0  0  0  0  0  0  0  0
  -18.7013   13.6363   26.5303 N   0  0  0  0  0  0  0  0  0  0  0  0
  -19.2187   12.4518   27.1821 C   0  0  0  0  0  0  0  0  0  0  0  0
  -19.0609   11.6059   26.5043 H   0  0  0  0  0  0  0  0  0  0  0  0
  -18.6208   12.2778   28.0835 H   0  0  0  0  0  0  0  0  0  0  0  0
  -20.6874   12.5881   27.5423 C   0  0  0  0  0  0  0  0  0  0  0  0
  -21.3006   12.7487   26.6494 H   0  0  0  0  0  0  0  0  0  0  0  0
  -20.8514   13.4362   28.2161 H   0  0  0  0  0  0  0  0  0  0  0  0
  -21.0421   11.6816   28.0416 H   0  0  0  0  0  0  0  0  0  0  0  0
  -19.1554   13.9895   25.2919 N   0  0  0  0  0  0  0  0  0  0  0  0
  -18.4942   15.0778   24.9919 C   0  0  0  0  0  0  0  0  0  0  0  0
  -18.6194   15.6066   24.0829 H   0  0  0  0  0  0  0  0  0  0  0  0
  -15.0225   18.1236   26.6359 C   0  0  0  0  0  0  0  0  0  0  0  0
  -14.2373   18.1854   27.4000 H   0  0  0  0  0  0  0  0  0  0  0  0
  -14.3827   18.1315   25.2413 C   0  0  0  0  0  0  0  0  0  0  0  0
  -13.3183   17.8780   25.2873 H   0  0  0  0  0  0  0  0  0  0  0  0
  -14.8545   17.4095   24.5661 H   0  0  0  0  0  0  0  0  0  0  0  0
  -14.5863   19.5464   24.7182 C   0  0  0  0  0  0  0  0  0  0  0  0
  -13.7960   20.2057   25.0961 H   0  0  0  0  0  0  0  0  0  0  0  0
  -14.5750   19.5913   23.6256 H   0  0  0  0  0  0  0  0  0  0  0  0
  -15.9287   19.9508   25.3010 C   0  0  0  0  0  0  0  0  0  0  0  0
  -16.7439   19.4895   24.7329 H   0  0  0  0  0  0  0  0  0  0  0  0
  -16.0773   21.0341   25.2891 H   0  0  0  0  0  0  0  0  0  0  0  0
  -15.8856   19.3916   26.7178 C   0  0  0  0  0  0  0  0  0  0  0  0
  -16.8904   19.2215   27.1170 H   0  0  0  0  0  0  0  0  0  0  0  0
  -15.3937   20.1190   27.3768 H   0  0  0  0  0  0  0  0  0  0  0  0
  1  2  2  0
  2  3  1  0
  2 19  1  0
  3  4  1  0
  3  5  1  0
  5  6  2  0
  5 17  1  0
  6  7  1  0
  6  8  1  0
  8  9  1  0
  8 16  1  0
  9 10  1  0
  9 11  1  0
  9 12  1  0
 12 13  1  0
 12 14  1  0
 12 15  1  0
 16 17  2  0
 17 18  1  0
 19 20  1  0
 19 21  1  0
 19 30  1  0
 21 22  1  0
 21 23  1  0
 21 24  1  0
 24 25  1  0
 24 26  1  0
 24 27  1  0
 27 28  1  0
 27 29  1  0
 27 30  1  0
 30 31  1  0
 30 32  1  0
M  END
$$$$
