
     RDKit          3D

 22 22  0  0  0  0  0  0  0  0999 V2000
  -24.7801   12.2014   25.7932 O   0  0  0  0  0  0  0  0  0  0  0  0
  -25.1997   11.3238   25.7739 H   0  0  0  0  0  0  0  0  0  0  0  0
  -24.7525   12.6195   27.1551 C   0  0  0  0  0  0  0  0  0  0  0  0
  -24.5419   13.6939   27.1910 H   0  0  0  0  0  0  0  0  0  0  0  0
  -25.7470   12.4399   27.5758 H   0  0  0  0  0  0  0  0  0  0  0  0
  -23.7106   11.8151   27.9298 C   0  0  0  0  0  0  0  0  0  0  0  0
  -23.9777   11.8227   28.9937 H   0  0  0  0  0  0  0  0  0  0  0  0
  -23.7215   10.7690   27.5974 H   0  0  0  0  0  0  0  0  0  0  0  0
  -22.3241   12.3558   27.7733 C   0  0  0  0  0  0  0  0  0  0  0  0
  -21.2733   11.7504   27.1755 C   0  0  0  0  0  0  0  0  0  0  0  0
  -21.1792   10.8058   26.7078 H   0  0  0  0  0  0  0  0  0  0  0  0
  -20.2410   12.6167   27.2718 N   0  0  0  0  0  0  0  0  0  0  0  0
  -18.8897   12.4489   26.7828 C   0  0  0  0  0  0  0  0  0  0  0  0
  -18.2454   13.1388   27.3382 H   0  0  0  0  0  0  0  0  0  0  0  0
  -18.5741   11.4275   27.0213 H   0  0  0  0  0  0  0  0  0  0  0  0
  -18.7838   12.7120   25.2913 C   0  0  0  0  0  0  0  0  0  0  0  0
  -19.0964   13.7342   25.0479 H   0  0  0  0  0  0  0  0  0  0  0  0
  -19.4186   12.0253   24.7215 H   0  0  0  0  0  0  0  0  0  0  0  0
  -17.7506   12.5817   24.9548 H   0  0  0  0  0  0  0  0  0  0  0  0
  -20.5970   13.7558   27.9162 N   0  0  0  0  0  0  0  0  0  0  0  0
  -21.8576   13.5914   28.2136 C   0  0  0  0  0  0  0  0  0  0  0  0
  -22.4371   14.3167   28.7303 H   0  0  0  0  0  0  0  0  0  0  0  0
  1  2  1  0
  1  3  1  0
  3  4  1  0
  3  5  1  0
  3  6  1  0
  6  7  1  0
  6  8  1  0
  6  9  1  0
  9 10  2  0
  9 21  1  0
 10 11  1  0
 10 12  1  0
 12 13  1  0
 12 20  1  0
 13 14  1  0
 13 15  1  0
 13 16  1  0
 16 17  1  0
 16 18  1  0
 16 19  1  0
 20 21  2  0
 21 22  1  0
M  END
$$$$
