
     RDKit          3D

 20 20  0  0  0  0  0  0  0  0999 V2000
  -17.1761   16.0785   27.1861 S   0  0  0  0  0  0  0  0  0  0  0  0
  -16.2587   15.8782   28.2841 O   0  0  0  0  0  0  0  0  0  0  0  0
  -18.5571   15.6519   27.2506 O   0  0  0  0  0  0  0  0  0  0  0  0
  -16.4935   15.3443   25.8302 N   0  0  0  0  0  0  0  0  0  0  0  0
  -16.9085   15.6799   24.9580 H   0  0  0  0  0  0  0  0  0  0  0  0
  -15.4709   15.3788   25.8431 H   0  0  0  0  0  0  0  0  0  0  0  0
  -17.1371   17.7768   26.7239 C   0  0  0  0  0  0  0  0  0  0  0  0
  -18.0564   18.6788   27.2679 C   0  0  0  0  0  0  0  0  0  0  0  0
  -18.8008   18.3492   27.9456 H   0  0  0  0  0  0  0  0  0  0  0  0
  -17.9775   20.0165   26.9113 C   0  0  0  0  0  0  0  0  0  0  0  0
  -18.8642   20.8764   27.4335 F   0  0  0  0  0  0  0  0  0  0  0  0
  -17.0127   20.4993   26.0401 C   0  0  0  0  0  0  0  0  0  0  0  0
  -16.9859   21.5303   25.7967 H   0  0  0  0  0  0  0  0  0  0  0  0
  -16.0858   19.6094   25.5020 C   0  0  0  0  0  0  0  0  0  0  0  0
  -14.9987   20.1051   24.5938 C   0  0  0  0  0  0  0  0  0  0  0  0
  -15.3301   20.9820   24.0278 H   0  0  0  0  0  0  0  0  0  0  0  0
  -14.7177   19.3367   23.8661 H   0  0  0  0  0  0  0  0  0  0  0  0
  -14.1157   20.3755   25.1803 H   0  0  0  0  0  0  0  0  0  0  0  0
  -16.1502   18.2576   25.8522 C   0  0  0  0  0  0  0  0  0  0  0  0
  -15.4371   17.5767   25.4576 H   0  0  0  0  0  0  0  0  0  0  0  0
  1  2  2  0
  1  3  2  0
  1  4  1  0
  1  7  1  0
  4  5  1  0
  4  6  1  0
  7  8  1  0
  7 19  2  0
  8  9  1  0
  8 10  2  0
 10 11  1  0
 10 12  1  0
 12 13  1  0
 12 14  2  0
 14 15  1  0
 14 19  1  0
 15 16  1  0
 15 17  1  0
 15 18  1  0
 19 20  1  0
M  END
$$$$
