
     RDKit          3D

 27 27  0  0  0  0  0  0  0  0999 V2000
  -26.6293   15.5947   28.3871 S   0  0  0  0  0  0  0  0  0  0  0  0
  -26.0321   16.8271   27.9212 O   0  0  0  0  0  0  0  0  0  0  0  0
  -27.7778   15.0057   27.7340 O   0  0  0  0  0  0  0  0  0  0  0  0
  -27.0463   15.8284   30.0041 N   0  0  0  0  0  0  0  0  0  0  0  0
  -27.3295   14.9581   30.4606 H   0  0  0  0  0  0  0  0  0  0  0  0
  -27.7146   16.5935   30.1243 H   0  0  0  0  0  0  0  0  0  0  0  0
  -25.3720   14.3745   28.5203 C   0  0  0  0  0  0  0  0  0  0  0  0
  -24.5401   14.3285   29.6429 C   0  0  0  0  0  0  0  0  0  0  0  0
  -24.6920   15.0195   30.4359 H   0  0  0  0  0  0  0  0  0  0  0  0
  -23.5124   13.3962   29.7262 C   0  0  0  0  0  0  0  0  0  0  0  0
  -22.8874   13.3781   30.5835 H   0  0  0  0  0  0  0  0  0  0  0  0
  -23.2952   12.4951   28.6856 C   0  0  0  0  0  0  0  0  0  0  0  0
  -22.1399   11.5341   28.7439 C   0  0  0  0  0  0  0  0  0  0  0  0
  -22.4954   10.5024   28.8570 H   0  0  0  0  0  0  0  0  0  0  0  0
  -21.4970   11.7466   29.6070 H   0  0  0  0  0  0  0  0  0  0  0  0
  -21.3433   11.6250   27.5393 N   0  0  0  0  0  0  0  0  0  0  0  0
  -21.6394   11.0857   26.7440 H   0  0  0  0  0  0  0  0  0  0  0  0
  -20.2586   12.3834   27.4602 C   0  0  0  0  0  0  0  0  0  0  0  0
  -19.8656   13.0549   28.4026 O   0  0  0  0  0  0  0  0  0  0  0  0
  -19.5616   12.3658   26.1299 C   0  0  0  0  0  0  0  0  0  0  0  0
  -19.3607   11.3346   25.8252 H   0  0  0  0  0  0  0  0  0  0  0  0
  -20.1923   12.8500   25.3789 H   0  0  0  0  0  0  0  0  0  0  0  0
  -18.6124   12.9034   26.2036 H   0  0  0  0  0  0  0  0  0  0  0  0
  -24.1130   12.5415   27.5593 C   0  0  0  0  0  0  0  0  0  0  0  0
  -23.9470   11.8689   26.7553 H   0  0  0  0  0  0  0  0  0  0  0  0
  -25.1408   13.4755   27.4763 C   0  0  0  0  0  0  0  0  0  0  0  0
  -25.7517   13.5120   26.6080 H   0  0  0  0  0  0  0  0  0  0  0  0
  1  2  2  0
  1  3  2  0
  1  4  1  0
  1  7  1  0
  4  5  1  0
  4  6  1  0
  7  8  1  0
  7 26  2  0
  8  9  1  0
  8 10  2  0
 10 11  1  0
 10 12  1  0
 12 13  1  0
 12 24  2  0
 13 14  1  0
 13 15  1  0
 13 16  1  0
 16 17  1  0
 16 18  1  0
 18 19  2  0
 18 20  1  0
 20 21  1  0
 20 22  1  0
 20 23  1  0
 24 25  1  0
 24 26  1  0
 26 27  1  0
M  END
$$$$
