
     RDKit          3D

 24 25  0  0  0  0  0  0  0  0999 V2000
  -17.6899   19.3001   25.9687 S   0  0  0  0  0  0  0  0  0  0  0  0
  -19.0025   19.6572   25.4682 O   0  0  0  0  0  0  0  0  0  0  0  0
  -16.6795   18.7497   25.0801 O   0  0  0  0  0  0  0  0  0  0  0  0
  -17.8793   18.1711   27.3388 C   0  0  0  0  0  0  0  0  0  0  0  0
  -16.9050   18.0664   27.8243 H   0  0  0  0  0  0  0  0  0  0  0  0
  -18.5957   18.6116   28.0377 H   0  0  0  0  0  0  0  0  0  0  0  0
  -18.3538   16.8510   26.8412 C   0  0  0  0  0  0  0  0  0  0  0  0
  -17.9747   16.3309   25.6334 N   0  0  0  0  0  0  0  0  0  0  0  0
  -17.3702   16.7848   24.9339 H   0  0  0  0  0  0  0  0  0  0  0  0
  -18.5379   15.1041   25.5077 C   0  0  0  0  0  0  0  0  0  0  0  0
  -19.2517   14.9238   26.6742 C   0  0  0  0  0  0  0  0  0  0  0  0
  -19.1161   16.0308   27.4851 N   0  0  0  0  0  0  0  0  0  0  0  0
  -19.9619   13.7304   26.8599 C   0  0  0  0  0  0  0  0  0  0  0  0
  -20.5133   13.5859   27.7518 H   0  0  0  0  0  0  0  0  0  0  0  0
  -19.9300   12.7607   25.8656 C   0  0  0  0  0  0  0  0  0  0  0  0
  -20.4640   11.8549   25.9949 H   0  0  0  0  0  0  0  0  0  0  0  0
  -19.1897   12.9693   24.6786 C   0  0  0  0  0  0  0  0  0  0  0  0
  -19.1782   12.2153   23.9322 H   0  0  0  0  0  0  0  0  0  0  0  0
  -18.4841   14.1463   24.4860 C   0  0  0  0  0  0  0  0  0  0  0  0
  -17.9264   14.3161   23.6014 H   0  0  0  0  0  0  0  0  0  0  0  0
  -16.9996   20.7419   26.7399 C   0  0  0  0  0  0  0  0  0  0  0  0
  -17.7035   21.1125   27.4871 H   0  0  0  0  0  0  0  0  0  0  0  0
  -16.8395   21.4978   25.9684 H   0  0  0  0  0  0  0  0  0  0  0  0
  -16.0477   20.4738   27.2033 H   0  0  0  0  0  0  0  0  0  0  0  0
  1  2  2  0
  1  3  2  0
  1  4  1  0
  1 21  1  0
  4  5  1  0
  4  6  1  0
  4  7  1  0
  7  8  1  0
  7 12  2  0
  8  9  1  0
  8 10  1  0
 10 11  1  0
 10 19  2  0
 11 12  1  0
 11 13  2  0
 13 14  1  0
 13 15  1  0
 15 16  1  0
 15 17  2  0
 17 18  1  0
 17 19  1  0
 19 20  1  0
 21 22  1  0
 21 23  1  0
 21 24  1  0
M  END
$$$$
