MD_2_clus0
  MOE2019           3D

 23 24  0  0  0  0  0  0  0  0999 V2000
  -21.4072   16.0585   27.4165 O   0  0  0  0  0  0  0  0  0  0  0  0
  -21.2758   15.4574   26.3631 C   0  0  0  0  0  0  0  0  0  0  0  0
  -20.4908   14.3781   26.5060 N   0  0  0  0  0  0  0  0  0  0  0  0
  -20.1657   13.3284   25.5773 C   0  0  0  0  0  0  0  0  0  0  0  0
  -19.2831   12.3007   26.3754 C   0  0  0  0  0  0  0  0  0  0  0  0
  -18.7802   13.1211   27.5551 C   0  0  0  0  0  0  0  0  0  0  0  0
  -19.8951   14.0628   27.8554 C   0  0  0  0  0  0  0  0  0  0  0  0
  -21.9575   15.7821   25.0832 C   0  0  0  0  0  0  0  0  0  0  0  0
  -21.8306   15.2102   23.7969 C   0  0  0  0  0  0  0  0  0  0  0  0
  -22.6377   15.8544   22.9640 N   0  0  0  0  0  0  0  0  0  0  0  0
  -23.3329   16.7558   23.7353 N   0  0  0  0  0  0  0  0  0  0  0  0
  -22.8755   16.8210   25.0425 C   0  0  0  0  0  0  0  0  0  0  0  0
  -20.9935   12.8276   25.0695 H   0  0  0  0  0  0  0  0  0  0  0  0
  -19.6148   13.7605   24.7388 H   0  0  0  0  0  0  0  0  0  0  0  0
  -19.8868   11.4612   26.7266 H   0  0  0  0  0  0  0  0  0  0  0  0
  -18.5058   11.8970   25.7235 H   0  0  0  0  0  0  0  0  0  0  0  0
  -18.5997   12.4789   28.4189 H   0  0  0  0  0  0  0  0  0  0  0  0
  -17.9408   13.7771   27.3177 H   0  0  0  0  0  0  0  0  0  0  0  0
  -19.4840   14.9828   28.2788 H   0  0  0  0  0  0  0  0  0  0  0  0
  -20.6026   13.6579   28.5834 H   0  0  0  0  0  0  0  0  0  0  0  0
  -21.0703   14.5179   23.4541 H   0  0  0  0  0  0  0  0  0  0  0  0
  -24.0538   17.3399   23.3329 H   0  0  0  0  0  0  0  0  0  0  0  0
  -23.2600   17.5036   25.7896 H   0  0  0  0  0  0  0  0  0  0  0  0
  1  2  2  0  0  0  0
  2  3  1  0  0  0  0
  2  8  1  0  0  0  0
  3  4  1  0  0  0  0
  3  7  1  0  0  0  0
  4  5  1  0  0  0  0
  4 13  1  0  0  0  0
  4 14  1  0  0  0  0
  5  6  1  0  0  0  0
  5 15  1  0  0  0  0
  5 16  1  0  0  0  0
  6  7  1  0  0  0  0
  6 17  1  0  0  0  0
  6 18  1  0  0  0  0
  7 19  1  0  0  0  0
  7 20  1  0  0  0  0
  8  9  1  0  0  0  0
  8 12  2  0  0  0  0
  9 10  2  0  0  0  0
  9 21  1  0  0  0  0
 10 11  1  0  0  0  0
 11 12  1  0  0  0  0
 11 22  1  0  0  0  0
 12 23  1  0  0  0  0
M  END
$$$$
