MD_2_clus3
  MOE2019           3D

 19 19  0  0  0  0  0  0  0  0999 V2000
  -18.1349   11.0527   24.3613 O   0  0  0  0  0  0  0  0  0  0  0  0
  -18.5488   10.9070   25.4963 C   0  0  0  0  0  0  0  0  0  0  0  0
  -18.8349   12.0032   26.2869 N   0  0  0  0  0  0  0  0  0  0  0  0
  -18.9916   13.3481   25.6720 C   0  0  0  0  0  0  0  0  0  0  0  0
  -17.6795   14.1521   25.6501 C   0  0  0  0  0  0  0  0  0  0  0  0
  -18.0419   15.4225   25.1316 O   0  0  0  0  0  0  0  0  0  0  0  0
  -19.1647   11.9768   27.6208 C   0  0  0  0  0  0  0  0  0  0  0  0
  -19.0719   10.6985   28.2719 C   0  0  0  0  0  0  0  0  0  0  0  0
  -18.8452    9.5387   27.4823 C   0  0  0  0  0  0  0  0  0  0  0  0
  -18.7805    7.7465   28.3321 Br  0  0  0  0  0  0  0  0  0  0  0  0
  -18.6128    9.6553   26.1089 C   0  0  0  0  0  0  0  0  0  0  0  0
  -19.2039   13.3022   24.6001 H   0  0  0  0  0  0  0  0  0  0  0  0
  -19.7302   14.0205   26.1145 H   0  0  0  0  0  0  0  0  0  0  0  0
  -17.3529   14.3540   26.6740 H   0  0  0  0  0  0  0  0  0  0  0  0
  -16.9812   13.6308   24.9898 H   0  0  0  0  0  0  0  0  0  0  0  0
  -17.2819   15.9098   24.7658 H   0  0  0  0  0  0  0  0  0  0  0  0
  -19.3519   12.9372   28.0847 H   0  0  0  0  0  0  0  0  0  0  0  0
  -19.2133   10.6027   29.3433 H   0  0  0  0  0  0  0  0  0  0  0  0
  -18.3154    8.7785   25.5447 H   0  0  0  0  0  0  0  0  0  0  0  0
  1  2  2  0  0  0  0
  2  3  1  0  0  0  0
  2 11  1  0  0  0  0
  3  4  1  0  0  0  0
  3  7  1  0  0  0  0
  4  5  1  0  0  0  0
  4 12  1  0  0  0  0
  4 13  1  0  0  0  0
  5  6  1  0  0  0  0
  5 14  1  0  0  0  0
  5 15  1  0  0  0  0
  6 16  1  0  0  0  0
  7  8  2  0  0  0  0
  7 17  1  0  0  0  0
  8  9  1  0  0  0  0
  8 18  1  0  0  0  0
  9 10  1  0  0  0  0
  9 11  2  0  0  0  0
 11 19  1  0  0  0  0
M  END
$$$$
