MD_2_clus2
  MOE2019           3D

 30 31  0  0  0  0  0  0  0  0999 V2000
  -17.9019   15.8695   26.1047 C   0  0  0  0  0  0  0  0  0  0  0  0
  -16.5129   15.4279   25.6145 C   0  0  0  0  0  0  0  0  0  0  0  0
  -16.2854   14.1381   26.2454 N   0  0  0  0  0  0  0  0  0  0  0  0
  -15.4164   14.2598   27.4041 C   0  0  0  0  0  0  0  0  0  0  0  0
  -16.2767   13.6401   28.4715 C   0  0  0  0  0  0  0  0  0  0  0  0
  -16.0601   13.1555   25.3048 C   0  0  0  0  0  0  0  0  0  0  0  0
  -17.0801   12.3096   25.0693 C   0  0  0  0  0  0  0  0  0  0  0  0
  -16.9821   11.1937   24.2540 C   0  0  0  0  0  0  0  0  0  0  0  0
  -18.1257   10.3329   24.0156 C   0  0  0  0  0  0  0  0  0  0  0  0
  -15.8333   10.9357   23.5682 N   0  0  0  0  0  0  0  0  0  0  0  0
  -14.8419   11.8785   23.7530 C   0  0  0  0  0  0  0  0  0  0  0  0
  -13.6085   11.8311   23.2729 N   0  0  0  0  0  0  0  0  0  0  0  0
  -12.9495   12.9001   23.7571 C   0  0  0  0  0  0  0  0  0  0  0  0
  -13.7395   13.5864   24.6251 N   0  0  0  0  0  0  0  0  0  0  0  0
  -14.8958   12.9214   24.5792 N   0  0  0  0  0  0  0  0  0  0  0  0
  -18.6214   15.0525   26.0119 H   0  0  0  0  0  0  0  0  0  0  0  0
  -17.9723   16.1552   27.1560 H   0  0  0  0  0  0  0  0  0  0  0  0
  -18.1228   16.7310   25.4713 H   0  0  0  0  0  0  0  0  0  0  0  0
  -16.4970   15.3148   24.5272 H   0  0  0  0  0  0  0  0  0  0  0  0
  -15.8010   16.2314   25.8203 H   0  0  0  0  0  0  0  0  0  0  0  0
  -14.4710   13.7149   27.3525 H   0  0  0  0  0  0  0  0  0  0  0  0
  -15.2248   15.3019   27.6721 H   0  0  0  0  0  0  0  0  0  0  0  0
  -16.6367   12.6634   28.1431 H   0  0  0  0  0  0  0  0  0  0  0  0
  -15.7627   13.2827   29.3668 H   0  0  0  0  0  0  0  0  0  0  0  0
  -17.2413   14.0905   28.7152 H   0  0  0  0  0  0  0  0  0  0  0  0
  -18.0563   12.5820   25.4571 H   0  0  0  0  0  0  0  0  0  0  0  0
  -18.9457   10.8703   23.5353 H   0  0  0  0  0  0  0  0  0  0  0  0
  -17.9206    9.5617   23.2700 H   0  0  0  0  0  0  0  0  0  0  0  0
  -18.4683    9.7995   24.9045 H   0  0  0  0  0  0  0  0  0  0  0  0
  -11.9825   13.1542   23.3523 H   0  0  0  0  0  0  0  0  0  0  0  0
  1  2  1  0  0  0  0
  1 16  1  0  0  0  0
  1 17  1  0  0  0  0
  1 18  1  0  0  0  0
  2  3  1  0  0  0  0
  2 19  1  0  0  0  0
  2 20  1  0  0  0  0
  3  4  1  0  0  0  0
  3  6  1  0  0  0  0
  4  5  1  0  0  0  0
  4 21  1  0  0  0  0
  4 22  1  0  0  0  0
  5 23  1  0  0  0  0
  5 24  1  0  0  0  0
  5 25  1  0  0  0  0
  6  7  2  0  0  0  0
  6 15  1  0  0  0  0
  7  8  1  0  0  0  0
  7 26  1  0  0  0  0
  8  9  1  0  0  0  0
  8 10  2  0  0  0  0
  9 27  1  0  0  0  0
  9 28  1  0  0  0  0
  9 29  1  0  0  0  0
 10 11  1  0  0  0  0
 11 12  2  0  0  0  0
 11 15  1  0  0  0  0
 12 13  1  0  0  0  0
 13 14  2  0  0  0  0
 13 30  1  0  0  0  0
 14 15  1  0  0  0  0
M  END
$$$$
