MD_3_clus3
  MOE2019           3D

 18 18  0  0  0  0  0  0  0  0999 V2000
  -18.4388   14.0760   26.0427 C   0  0  0  0  0  0  0  0  0  0  0  0
  -19.4578   14.6801   27.0165 C   0  0  0  0  0  0  0  0  0  0  0  0
  -19.6840   16.1027   26.8915 N   0  0  0  0  0  0  0  0  0  0  0  0
  -20.7475   16.7651   27.3907 C   0  0  0  0  0  0  0  0  0  0  0  0
  -21.6337   16.1977   28.0819 O   0  0  0  0  0  0  0  0  0  0  0  0
  -20.7110   18.1188   26.9080 C   0  0  0  0  0  0  0  0  0  0  0  0
  -21.6751   19.0996   27.2137 C   0  0  0  0  0  0  0  0  0  0  0  0
  -21.3758   20.2376   26.5230 N   0  0  0  0  0  0  0  0  0  0  0  0
  -20.3362   19.8042   25.7633 N   0  0  0  0  0  0  0  0  0  0  0  0
  -19.8691   18.5327   25.9346 N   0  0  0  0  0  0  0  0  0  0  0  0
  -18.7167   13.9810   24.9906 H   0  0  0  0  0  0  0  0  0  0  0  0
  -17.5189   14.6648   26.0424 H   0  0  0  0  0  0  0  0  0  0  0  0
  -18.2204   13.0479   26.3377 H   0  0  0  0  0  0  0  0  0  0  0  0
  -20.3815   14.1415   26.7899 H   0  0  0  0  0  0  0  0  0  0  0  0
  -19.1583   14.5445   28.0585 H   0  0  0  0  0  0  0  0  0  0  0  0
  -19.0989   16.6660   26.2930 H   0  0  0  0  0  0  0  0  0  0  0  0
  -22.6252   19.1120   27.7320 H   0  0  0  0  0  0  0  0  0  0  0  0
  -19.9780   20.4516   25.0742 H   0  0  0  0  0  0  0  0  0  0  0  0
  1  2  1  0  0  0  0
  1 11  1  0  0  0  0
  1 12  1  0  0  0  0
  1 13  1  0  0  0  0
  2  3  1  0  0  0  0
  2 14  1  0  0  0  0
  2 15  1  0  0  0  0
  3  4  1  0  0  0  0
  3 16  1  0  0  0  0
  4  5  2  0  0  0  0
  4  6  1  0  0  0  0
  6  7  1  0  0  0  0
  6 10  2  0  0  0  0
  7  8  2  0  0  0  0
  7 17  1  0  0  0  0
  8  9  1  0  0  0  0
  9 10  1  0  0  0  0
  9 18  1  0  0  0  0
M  END
$$$$
