MD_1_clus1
  MOE2019           3D

 29 30  0  0  0  0  0  0  0  0999 V2000
  -18.8209   18.5325   27.0815 N   0  0  0  0  0  0  0  0  0  0  0  0
  -19.9202   17.8342   27.2183 C   0  0  0  0  0  0  0  0  0  0  0  0
  -20.9942   18.3642   27.1500 O   0  0  0  0  0  0  0  0  0  0  0  0
  -19.7630   16.5168   27.5646 N   0  0  0  0  0  0  0  0  0  0  0  0
  -18.5163   15.7998   27.7462 C   0  0  0  0  0  0  0  0  0  0  0  0
  -18.3011   14.7434   26.6436 C   0  0  0  0  0  0  0  0  0  0  0  0
  -19.4394   13.8225   26.5588 N   0  0  0  0  0  0  0  0  0  0  0  0
  -20.7919   14.3541   26.9013 C   0  0  0  0  0  0  0  0  0  0  0  0
  -20.9416   15.6009   27.8188 C   0  0  0  0  0  0  0  0  0  0  0  0
  -19.3907   12.7194   25.7703 C   0  0  0  0  0  0  0  0  0  0  0  0
  -20.4159   12.0826   25.7705 O   0  0  0  0  0  0  0  0  0  0  0  0
  -18.1663   12.3691   24.9868 C   0  0  0  0  0  0  0  0  0  0  0  0
  -18.1077   11.1715   24.3886 C   0  0  0  0  0  0  0  0  0  0  0  0
  -16.9027   11.1211   23.6861 C   0  0  0  0  0  0  0  0  0  0  0  0
  -16.4242   12.4033   23.7865 C   0  0  0  0  0  0  0  0  0  0  0  0
  -17.2029   13.2515   24.5231 O   0  0  0  0  0  0  0  0  0  0  0  0
  -18.8802   19.5340   26.9769 H   0  0  0  0  0  0  0  0  0  0  0  0
  -17.8989   18.1380   27.1894 H   0  0  0  0  0  0  0  0  0  0  0  0
  -17.6506   16.4573   27.6335 H   0  0  0  0  0  0  0  0  0  0  0  0
  -18.5981   15.5070   28.7960 H   0  0  0  0  0  0  0  0  0  0  0  0
  -18.1730   15.1889   25.6535 H   0  0  0  0  0  0  0  0  0  0  0  0
  -17.3912   14.2196   26.9481 H   0  0  0  0  0  0  0  0  0  0  0  0
  -21.4230   14.5371   26.0275 H   0  0  0  0  0  0  0  0  0  0  0  0
  -21.3772   13.6017   27.4357 H   0  0  0  0  0  0  0  0  0  0  0  0
  -20.8523   15.2021   28.8324 H   0  0  0  0  0  0  0  0  0  0  0  0
  -21.8880   16.0915   27.5751 H   0  0  0  0  0  0  0  0  0  0  0  0
  -18.7966   10.3578   24.5891 H   0  0  0  0  0  0  0  0  0  0  0  0
  -16.5378   10.3020   23.0769 H   0  0  0  0  0  0  0  0  0  0  0  0
  -15.5765   12.8171   23.2533 H   0  0  0  0  0  0  0  0  0  0  0  0
  1  2  1  0  0  0  0
  1 17  1  0  0  0  0
  1 18  1  0  0  0  0
  2  3  2  0  0  0  0
  2  4  1  0  0  0  0
  4  5  1  0  0  0  0
  4  9  1  0  0  0  0
  5  6  1  0  0  0  0
  5 19  1  0  0  0  0
  5 20  1  0  0  0  0
  6  7  1  0  0  0  0
  6 21  1  0  0  0  0
  6 22  1  0  0  0  0
  7  8  1  0  0  0  0
  7 10  1  0  0  0  0
  8  9  1  0  0  0  0
  8 23  1  0  0  0  0
  8 24  1  0  0  0  0
  9 25  1  0  0  0  0
  9 26  1  0  0  0  0
 10 11  2  0  0  0  0
 10 12  1  0  0  0  0
 12 13  2  0  0  0  0
 12 16  1  0  0  0  0
 13 14  1  0  0  0  0
 13 27  1  0  0  0  0
 14 15  2  0  0  0  0
 14 28  1  0  0  0  0
 15 16  1  0  0  0  0
 15 29  1  0  0  0  0
M  END
$$$$
