MD_3_clus1
  MOE2019           3D

 27 28  0  0  0  0  0  0  0  0999 V2000
  -22.0840   10.9533   24.5586 C   0  0  0  0  0  0  0  0  0  0  0  0
  -21.2843   11.9547   25.2596 O   0  0  0  0  0  0  0  0  0  0  0  0
  -19.9592   12.3266   24.8372 C   0  0  0  0  0  0  0  0  0  0  0  0
  -19.1192   11.3645   24.3437 C   0  0  0  0  0  0  0  0  0  0  0  0
  -17.8618   11.8076   23.8641 C   0  0  0  0  0  0  0  0  0  0  0  0
  -17.4102   13.0974   24.0997 C   0  0  0  0  0  0  0  0  0  0  0  0
  -18.1669   13.9264   24.8278 C   0  0  0  0  0  0  0  0  0  0  0  0
  -17.5150   15.0233   25.3589 N   0  0  0  0  0  0  0  0  0  0  0  0
  -17.5991   15.5421   26.5921 C   0  0  0  0  0  0  0  0  0  0  0  0
  -17.2231   16.6822   26.8061 O   0  0  0  0  0  0  0  0  0  0  0  0
  -18.1604   14.5694   27.6569 C   0  0  0  0  0  0  0  0  0  0  0  0
  -19.7375   14.5108   27.5437 C   0  0  0  0  0  0  0  0  0  0  0  0
  -20.3019   14.5013   26.0773 C   0  0  0  0  0  0  0  0  0  0  0  0
  -19.4661   13.5717   25.1830 C   0  0  0  0  0  0  0  0  0  0  0  0
  -22.2920   11.2054   23.5158 H   0  0  0  0  0  0  0  0  0  0  0  0
  -21.6488    9.9540   24.6434 H   0  0  0  0  0  0  0  0  0  0  0  0
  -23.0252   10.8366   25.1018 H   0  0  0  0  0  0  0  0  0  0  0  0
  -19.3430   10.3011   24.3761 H   0  0  0  0  0  0  0  0  0  0  0  0
  -17.1168   11.1140   23.4835 H   0  0  0  0  0  0  0  0  0  0  0  0
  -16.4345   13.4063   23.7323 H   0  0  0  0  0  0  0  0  0  0  0  0
  -16.9916   15.5458   24.6733 H   0  0  0  0  0  0  0  0  0  0  0  0
  -17.7122   13.5749   27.5938 H   0  0  0  0  0  0  0  0  0  0  0  0
  -17.9764   15.0484   28.6208 H   0  0  0  0  0  0  0  0  0  0  0  0
  -20.1425   13.6401   28.0639 H   0  0  0  0  0  0  0  0  0  0  0  0
  -20.1876   15.3512   28.0757 H   0  0  0  0  0  0  0  0  0  0  0  0
  -21.3605   14.2965   26.2532 H   0  0  0  0  0  0  0  0  0  0  0  0
  -20.2170   15.5391   25.7490 H   0  0  0  0  0  0  0  0  0  0  0  0
  1  2  1  0  0  0  0
  1 15  1  0  0  0  0
  1 16  1  0  0  0  0
  1 17  1  0  0  0  0
  2  3  1  0  0  0  0
  3  4  1  0  0  0  0
  3 14  2  0  0  0  0
  4  5  2  0  0  0  0
  4 18  1  0  0  0  0
  5  6  1  0  0  0  0
  5 19  1  0  0  0  0
  6  7  2  0  0  0  0
  6 20  1  0  0  0  0
  7  8  1  0  0  0  0
  7 14  1  0  0  0  0
  8  9  1  0  0  0  0
  8 21  1  0  0  0  0
  9 10  2  0  0  0  0
  9 11  1  0  0  0  0
 11 12  1  0  0  0  0
 11 22  1  0  0  0  0
 11 23  1  0  0  0  0
 12 13  1  0  0  0  0
 12 24  1  0  0  0  0
 12 25  1  0  0  0  0
 13 14  1  0  0  0  0
 13 26  1  0  0  0  0
 13 27  1  0  0  0  0
M  END
$$$$
