MD_2_clus1
  MOE2019           3D

 19 19  0  0  0  0  0  0  0  0999 V2000
  -18.9817   17.7793   26.5509 C   0  0  0  0  0  0  0  0  0  0  0  0
  -19.9788   19.4589   26.2000 Br  0  0  0  0  0  0  0  0  0  0  0  0
  -19.5082   16.5594   26.8494 C   0  0  0  0  0  0  0  0  0  0  0  0
  -18.4611   15.7368   26.9968 N   0  0  0  0  0  0  0  0  0  0  0  0
  -18.5533   14.3880   27.5321 C   0  0  0  0  0  0  0  0  0  0  0  0
  -18.3653   13.2502   26.6048 C   0  0  0  0  0  0  0  0  0  0  0  0
  -19.6047   13.1146   25.9558 O   0  0  0  0  0  0  0  0  0  0  0  0
  -19.5122   12.3262   24.8045 C   0  0  0  0  0  0  0  0  0  0  0  0
  -17.2471   16.3620   26.7505 N   0  0  0  0  0  0  0  0  0  0  0  0
  -17.5840   17.6041   26.5424 C   0  0  0  0  0  0  0  0  0  0  0  0
  -20.5280   16.2170   26.9742 H   0  0  0  0  0  0  0  0  0  0  0  0
  -17.8863   14.3442   28.3978 H   0  0  0  0  0  0  0  0  0  0  0  0
  -19.5141   14.2089   28.0213 H   0  0  0  0  0  0  0  0  0  0  0  0
  -17.6805   13.6174   25.8369 H   0  0  0  0  0  0  0  0  0  0  0  0
  -17.9644   12.3313   27.0394 H   0  0  0  0  0  0  0  0  0  0  0  0
  -19.4180   11.2706   25.0698 H   0  0  0  0  0  0  0  0  0  0  0  0
  -20.4495   12.4581   24.2572 H   0  0  0  0  0  0  0  0  0  0  0  0
  -18.7264   12.7015   24.1450 H   0  0  0  0  0  0  0  0  0  0  0  0
  -16.8013   18.3422   26.4143 H   0  0  0  0  0  0  0  0  0  0  0  0
  1  2  1  0  0  0  0
  1  3  2  0  0  0  0
  1 10  1  0  0  0  0
  3  4  1  0  0  0  0
  3 11  1  0  0  0  0
  4  5  1  0  0  0  0
  4  9  1  0  0  0  0
  5  6  1  0  0  0  0
  5 12  1  0  0  0  0
  5 13  1  0  0  0  0
  6  7  1  0  0  0  0
  6 14  1  0  0  0  0
  6 15  1  0  0  0  0
  7  8  1  0  0  0  0
  8 16  1  0  0  0  0
  8 17  1  0  0  0  0
  8 18  1  0  0  0  0
  9 10  2  0  0  0  0
 10 19  1  0  0  0  0
M  END
$$$$
