MD_2_clus1
  MOE2019           3D

 29 30  0  0  0  0  0  0  0  0999 V2000
  -23.0174    7.9598   31.9656 C   0  0  0  0  0  0  0  0  0  0  0  0
  -22.7524    9.3127   32.6090 C   0  0  0  0  0  0  0  0  0  0  0  0
  -22.7792   10.4065   31.6750 N   0  0  0  0  0  0  0  0  0  0  0  0
  -21.9801   10.5665   30.5204 C   0  0  0  0  0  0  0  0  0  0  0  0
  -22.0863   11.8873   30.2646 C   0  0  0  0  0  0  0  0  0  0  0  0
  -21.2940   12.4202   29.2549 N   0  0  0  0  0  0  0  0  0  0  0  0
  -21.2970   13.6861   28.7456 C   0  0  0  0  0  0  0  0  0  0  0  0
  -22.1368   14.5328   29.0211 O   0  0  0  0  0  0  0  0  0  0  0  0
  -20.1134   13.4677   27.7106 C   0  0  0  0  0  0  0  0  0  0  0  0
  -19.1256   13.9770   28.7697 C   0  0  0  0  0  0  0  0  0  0  0  0
  -18.5198   14.9216   27.7011 C   0  0  0  0  0  0  0  0  0  0  0  0
  -20.0310   14.9821   27.2875 C   0  0  0  0  0  0  0  0  0  0  0  0
  -22.8972   12.4905   31.2728 C   0  0  0  0  0  0  0  0  0  0  0  0
  -23.1910   11.5633   32.2049 N   0  0  0  0  0  0  0  0  0  0  0  0
  -22.1894    7.6966   31.3040 H   0  0  0  0  0  0  0  0  0  0  0  0
  -22.9140    7.2564   32.7950 H   0  0  0  0  0  0  0  0  0  0  0  0
  -23.9422    7.8789   31.3922 H   0  0  0  0  0  0  0  0  0  0  0  0
  -23.5504    9.4889   33.3349 H   0  0  0  0  0  0  0  0  0  0  0  0
  -21.7541    9.2981   33.0547 H   0  0  0  0  0  0  0  0  0  0  0  0
  -21.3460    9.7418   30.2191 H   0  0  0  0  0  0  0  0  0  0  0  0
  -20.5122   11.8737   28.9251 H   0  0  0  0  0  0  0  0  0  0  0  0
  -19.9251   12.6512   27.0066 H   0  0  0  0  0  0  0  0  0  0  0  0
  -19.4495   14.6353   29.5819 H   0  0  0  0  0  0  0  0  0  0  0  0
  -18.4261   13.2641   29.2155 H   0  0  0  0  0  0  0  0  0  0  0  0
  -17.9382   15.8135   27.9524 H   0  0  0  0  0  0  0  0  0  0  0  0
  -17.8947   14.3331   27.0245 H   0  0  0  0  0  0  0  0  0  0  0  0
  -20.1868   15.1749   26.2219 H   0  0  0  0  0  0  0  0  0  0  0  0
  -20.5210   15.7887   27.8392 H   0  0  0  0  0  0  0  0  0  0  0  0
  -23.2572   13.5108   31.3180 H   0  0  0  0  0  0  0  0  0  0  0  0
  1  2  1  0  0  0  0
  1 15  1  0  0  0  0
  1 16  1  0  0  0  0
  1 17  1  0  0  0  0
  2  3  1  0  0  0  0
  2 18  1  0  0  0  0
  2 19  1  0  0  0  0
  3  4  1  0  0  0  0
  3 14  1  0  0  0  0
  4  5  2  0  0  0  0
  4 20  1  0  0  0  0
  5  6  1  0  0  0  0
  5 13  1  0  0  0  0
  6  7  1  0  0  0  0
  6 21  1  0  0  0  0
  7  8  2  0  0  0  0
  7  9  1  0  0  0  0
  9 10  1  0  0  0  0
  9 12  1  0  0  0  0
  9 22  1  0  0  0  0
 10 11  1  0  0  0  0
 10 23  1  0  0  0  0
 10 24  1  0  0  0  0
 11 12  1  0  0  0  0
 11 25  1  0  0  0  0
 11 26  1  0  0  0  0
 12 27  1  0  0  0  0
 12 28  1  0  0  0  0
 13 14  2  0  0  0  0
 13 29  1  0  0  0  0
M  END
$$$$
