MD_3_clus2
  MOE2019           3D

 14 14  0  0  0  0  0  0  0  0999 V2000
  -22.5971   11.5312   24.2299 C   0  0  0  0  0  0  0  0  0  0  0  0
  -22.4849   12.1127   25.6070 C   0  0  0  0  0  0  0  0  0  0  0  0
  -21.2302   12.4190   26.1312 C   0  0  0  0  0  0  0  0  0  0  0  0
  -21.3017   12.7729   27.4649 C   0  0  0  0  0  0  0  0  0  0  0  0
  -22.8920   12.6915   28.0722 S   0  0  0  0  0  0  0  0  0  0  0  0
  -23.5785   12.3099   26.5380 C   0  0  0  0  0  0  0  0  0  0  0  0
  -25.0174   12.1756   26.3524 C   0  0  0  0  0  0  0  0  0  0  0  0
  -25.4180   11.7954   25.2884 O   0  0  0  0  0  0  0  0  0  0  0  0
  -25.7718   12.5898   27.1967 O   0  5  0  0  0  0  0  0  0  0  0  0
  -23.1600   12.1850   23.5609 H   0  0  0  0  0  0  0  0  0  0  0  0
  -21.5636   11.4344   23.8921 H   0  0  0  0  0  0  0  0  0  0  0  0
  -23.0100   10.5199   24.2323 H   0  0  0  0  0  0  0  0  0  0  0  0
  -20.3045   12.3620   25.5674 H   0  0  0  0  0  0  0  0  0  0  0  0
  -20.5112   13.0689   28.1432 H   0  0  0  0  0  0  0  0  0  0  0  0
  1  2  1  0  0  0  0
  1 10  1  0  0  0  0
  1 11  1  0  0  0  0
  1 12  1  0  0  0  0
  2  3  1  0  0  0  0
  2  6  2  0  0  0  0
  3  4  2  0  0  0  0
  3 13  1  0  0  0  0
  4  5  1  0  0  0  0
  4 14  1  0  0  0  0
  5  6  1  0  0  0  0
  6  7  1  0  0  0  0
  7  8  2  0  0  0  0
  7  9  1  0  0  0  0
M  CHG  1   9  -1
M  END
$$$$
