MD_2_clus0
  MOE2019           3D

 17 18  0  0  0  0  0  0  0  0999 V2000
  -17.9912   12.1125   23.9466 O   0  0  0  0  0  0  0  0  0  0  0  0
  -18.4373   12.8831   24.8538 C   0  0  0  0  0  0  0  0  0  0  0  0
  -18.6129   12.4514   26.2695 C   0  0  0  0  0  0  0  0  0  0  0  0
  -18.8076   13.6888   27.0394 C   0  0  0  0  0  0  0  0  0  0  0  0
  -18.6922   14.7780   26.1499 C   0  0  0  0  0  0  0  0  0  0  0  0
  -18.8747   16.0938   26.5415 C   0  0  0  0  0  0  0  0  0  0  0  0
  -19.3218   16.2666   27.8304 C   0  0  0  0  0  0  0  0  0  0  0  0
  -19.6577   18.1071   28.4922 Br  0  0  0  0  0  0  0  0  0  0  0  0
  -19.5469   15.1884   28.6880 C   0  0  0  0  0  0  0  0  0  0  0  0
  -19.1804   13.9133   28.3301 C   0  0  0  0  0  0  0  0  0  0  0  0
  -18.4461   14.2189   24.8580 N   0  0  0  0  0  0  0  0  0  0  0  0
  -19.5317   11.8603   26.2915 H   0  0  0  0  0  0  0  0  0  0  0  0
  -17.7651   11.8841   26.6604 H   0  0  0  0  0  0  0  0  0  0  0  0
  -18.6632   16.9471   25.9024 H   0  0  0  0  0  0  0  0  0  0  0  0
  -19.8668   15.4655   29.6895 H   0  0  0  0  0  0  0  0  0  0  0  0
  -19.3024   13.0980   29.0389 H   0  0  0  0  0  0  0  0  0  0  0  0
  -18.2084   14.8307   24.0927 H   0  0  0  0  0  0  0  0  0  0  0  0
  1  2  2  0  0  0  0
  2  3  1  0  0  0  0
  2 11  1  0  0  0  0
  3  4  1  0  0  0  0
  3 12  1  0  0  0  0
  3 13  1  0  0  0  0
  4  5  1  0  0  0  0
  4 10  2  0  0  0  0
  5  6  2  0  0  0  0
  5 11  1  0  0  0  0
  6  7  1  0  0  0  0
  6 14  1  0  0  0  0
  7  8  1  0  0  0  0
  7  9  2  0  0  0  0
  9 10  1  0  0  0  0
  9 15  1  0  0  0  0
 10 16  1  0  0  0  0
 11 17  1  0  0  0  0
M  END
$$$$
