MD_1_clus2
  MOE2019           3D

 29 30  0  0  0  0  0  0  0  0999 V2000
  -17.0641   18.3291   26.9530 C   0  0  0  0  0  0  0  0  0  0  0  0
  -17.3924   16.9554   26.6060 N   0  0  0  0  0  0  0  0  0  0  0  0
  -18.5756   16.4288   26.7955 C   0  0  0  0  0  0  0  0  0  0  0  0
  -19.5235   17.1488   27.1265 O   0  0  0  0  0  0  0  0  0  0  0  0
  -18.6720   14.9360   26.4473 C   0  0  0  0  0  0  0  0  0  0  0  0
  -18.7816   14.6252   24.9599 C   0  0  0  0  0  0  0  0  0  0  0  0
  -17.5634   14.0572   24.2174 C   0  0  0  0  0  0  0  0  0  0  0  0
  -16.5013   14.9115   23.9816 C   0  0  0  0  0  0  0  0  0  0  0  0
  -15.4216   14.5066   23.2605 C   0  0  0  0  0  0  0  0  0  0  0  0
  -15.3305   13.2694   22.7600 C   0  0  0  0  0  0  0  0  0  0  0  0
  -16.3749   12.3458   23.0570 C   0  0  0  0  0  0  0  0  0  0  0  0
  -17.4644   12.7166   23.8559 C   0  0  0  0  0  0  0  0  0  0  0  0
  -18.4021   11.8791   24.1878 F   0  0  0  0  0  0  0  0  0  0  0  0
  -18.1352   13.9004   27.4018 C   0  0  0  0  0  0  0  0  0  0  0  0
  -19.6263   14.1433   27.3177 C   0  0  0  0  0  0  0  0  0  0  0  0
  -15.9761   18.3655   26.8552 H   0  0  0  0  0  0  0  0  0  0  0  0
  -17.4529   19.1073   26.2925 H   0  0  0  0  0  0  0  0  0  0  0  0
  -17.2828   18.5979   27.9899 H   0  0  0  0  0  0  0  0  0  0  0  0
  -16.7108   16.2991   26.2563 H   0  0  0  0  0  0  0  0  0  0  0  0
  -19.5165   13.8213   24.8802 H   0  0  0  0  0  0  0  0  0  0  0  0
  -19.1447   15.4478   24.3395 H   0  0  0  0  0  0  0  0  0  0  0  0
  -16.6306   15.9465   24.2874 H   0  0  0  0  0  0  0  0  0  0  0  0
  -14.5858   15.1803   23.0902 H   0  0  0  0  0  0  0  0  0  0  0  0
  -14.4485   12.9732   22.1974 H   0  0  0  0  0  0  0  0  0  0  0  0
  -16.2500   11.3265   22.6984 H   0  0  0  0  0  0  0  0  0  0  0  0
  -17.7169   13.0237   26.9173 H   0  0  0  0  0  0  0  0  0  0  0  0
  -17.6583   14.2517   28.3125 H   0  0  0  0  0  0  0  0  0  0  0  0
  -20.0323   14.5516   28.2386 H   0  0  0  0  0  0  0  0  0  0  0  0
  -20.1454   13.2558   26.9674 H   0  0  0  0  0  0  0  0  0  0  0  0
  1  2  1  0  0  0  0
  1 16  1  0  0  0  0
  1 17  1  0  0  0  0
  1 18  1  0  0  0  0
  2  3  1  0  0  0  0
  2 19  1  0  0  0  0
  3  4  2  0  0  0  0
  3  5  1  0  0  0  0
  5  6  1  0  0  0  0
  5 14  1  0  0  0  0
  5 15  1  0  0  0  0
  6  7  1  0  0  0  0
  6 20  1  0  0  0  0
  6 21  1  0  0  0  0
  7  8  1  0  0  0  0
  7 12  2  0  0  0  0
  8  9  2  0  0  0  0
  8 22  1  0  0  0  0
  9 10  1  0  0  0  0
  9 23  1  0  0  0  0
 10 11  2  0  0  0  0
 10 24  1  0  0  0  0
 11 12  1  0  0  0  0
 11 25  1  0  0  0  0
 12 13  1  0  0  0  0
 14 15  1  0  0  0  0
 14 26  1  0  0  0  0
 14 27  1  0  0  0  0
 15 28  1  0  0  0  0
 15 29  1  0  0  0  0
M  END
$$$$
