MD_3_clus1
  MOE2019           3D

 29 30  0  0  1  0  0  0  0  0999 V2000
  -18.8248   13.3943   27.3628 C   0  0  0  0  0  0  0  0  0  0  0  0
  -19.6427   12.3332   26.6086 C   0  0  3  0  0  0  0  0  0  0  0  0
  -19.4068   12.6206   25.2153 O   0  0  0  0  0  0  0  0  0  0  0  0
  -21.0479   12.3972   27.0136 C   0  0  0  0  0  0  0  0  0  0  0  0
  -22.0729   11.7910   26.2343 C   0  0  0  0  0  0  0  0  0  0  0  0
  -23.2591   12.0955   26.7769 N   0  0  0  0  0  0  0  0  0  0  0  0
  -22.9812   12.8053   27.9086 N   0  0  0  0  0  0  0  0  0  0  0  0
  -21.5860   13.1903   27.9523 C   0  0  0  0  0  0  0  0  0  0  0  0
  -24.1227   13.1796   28.8469 C   0  0  0  0  0  0  0  0  0  0  0  0
  -24.5380   14.6054   29.0840 C   0  0  0  0  0  0  0  0  0  0  0  0
  -25.4882   14.6209   30.2846 C   0  0  0  0  0  0  0  0  0  0  0  0
  -24.8823   13.5112   31.1238 C   0  0  0  0  0  0  0  0  0  0  0  0
  -23.8766   12.7406   30.2863 C   0  0  0  0  0  0  0  0  0  0  0  0
  -19.2518   14.3849   27.1948 H   0  0  0  0  0  0  0  0  0  0  0  0
  -18.8583   13.1911   28.4354 H   0  0  0  0  0  0  0  0  0  0  0  0
  -17.7828   13.3980   27.0358 H   0  0  0  0  0  0  0  0  0  0  0  0
  -19.2193   11.3751   26.9211 H   0  0  0  0  0  0  0  0  0  0  0  0
  -19.2007   13.5709   25.1765 H   0  0  0  0  0  0  0  0  0  0  0  0
  -22.0537   11.1715   25.3457 H   0  0  0  0  0  0  0  0  0  0  0  0
  -21.1459   13.6298   28.8391 H   0  0  0  0  0  0  0  0  0  0  0  0
  -24.9888   12.5990   28.5186 H   0  0  0  0  0  0  0  0  0  0  0  0
  -23.7092   15.2676   29.3412 H   0  0  0  0  0  0  0  0  0  0  0  0
  -24.9933   15.0010   28.1745 H   0  0  0  0  0  0  0  0  0  0  0  0
  -25.5063   15.5525   30.8535 H   0  0  0  0  0  0  0  0  0  0  0  0
  -26.4895   14.2550   30.0465 H   0  0  0  0  0  0  0  0  0  0  0  0
  -24.4243   13.9184   32.0288 H   0  0  0  0  0  0  0  0  0  0  0  0
  -25.6984   12.8679   31.4571 H   0  0  0  0  0  0  0  0  0  0  0  0
  -24.0951   11.6705   30.3220 H   0  0  0  0  0  0  0  0  0  0  0  0
  -22.8447   13.0067   30.5221 H   0  0  0  0  0  0  0  0  0  0  0  0
  1  2  1  0  0  0  0
  1 14  1  0  0  0  0
  1 15  1  0  0  0  0
  1 16  1  0  0  0  0
  2  3  1  0  0  0  0
  2  4  1  0  0  0  0
  2 17  1  0  0  0  0
  3 18  1  0  0  0  0
  4  5  1  0  0  0  0
  4  8  2  0  0  0  0
  5  6  2  0  0  0  0
  5 19  1  0  0  0  0
  6  7  1  0  0  0  0
  7  8  1  0  0  0  0
  7  9  1  0  0  0  0
  8 20  1  0  0  0  0
  9 10  1  0  0  0  0
  9 13  1  0  0  0  0
  9 21  1  0  0  0  0
 10 11  1  0  0  0  0
 10 22  1  0  0  0  0
 10 23  1  0  0  0  0
 11 12  1  0  0  0  0
 11 24  1  0  0  0  0
 11 25  1  0  0  0  0
 12 13  1  0  0  0  0
 12 26  1  0  0  0  0
 12 27  1  0  0  0  0
 13 28  1  0  0  0  0
 13 29  1  0  0  0  0
M  END
$$$$
