MD_2_clus0
  MOE2019           3D

 20 20  0  0  0  0  0  0  0  0999 V2000
  -20.4857   14.9352   28.0304 C   0  0  0  0  0  0  0  0  0  0  0  0
  -19.4191   16.0131   28.1196 C   0  0  0  0  0  0  0  0  0  0  0  0
  -19.7385   17.2628   27.7048 C   0  0  0  0  0  0  0  0  0  0  0  0
  -18.8392   18.3347   27.6497 C   0  0  0  0  0  0  0  0  0  0  0  0
  -17.5684   18.1031   27.9891 C   0  0  0  0  0  0  0  0  0  0  0  0
  -16.6894   19.1093   27.7787 N   0  0  0  0  0  0  0  0  0  0  0  0
  -17.1124   16.7135   28.2827 C   0  0  0  0  0  0  0  0  0  0  0  0
  -15.9161   16.4962   28.3647 O   0  0  0  0  0  0  0  0  0  0  0  0
  -18.0666   15.7584   28.2520 N   0  0  0  0  0  0  0  0  0  0  0  0
  -17.7088   14.3754   28.5344 C   0  0  0  0  0  0  0  0  0  0  0  0
  -21.3148   15.2593   27.3980 H   0  0  0  0  0  0  0  0  0  0  0  0
  -20.2167   13.8979   27.8205 H   0  0  0  0  0  0  0  0  0  0  0  0
  -20.9334   14.9305   29.0266 H   0  0  0  0  0  0  0  0  0  0  0  0
  -20.7668   17.4158   27.3930 H   0  0  0  0  0  0  0  0  0  0  0  0
  -19.1121   19.3525   27.3882 H   0  0  0  0  0  0  0  0  0  0  0  0
  -15.7042   18.9019   27.6571 H   0  0  0  0  0  0  0  0  0  0  0  0
  -16.9680   19.8574   27.1534 H   0  0  0  0  0  0  0  0  0  0  0  0
  -16.7173   14.3247   28.9910 H   0  0  0  0  0  0  0  0  0  0  0  0
  -18.3406   13.7959   29.2130 H   0  0  0  0  0  0  0  0  0  0  0  0
  -17.7347   13.8804   27.5605 H   0  0  0  0  0  0  0  0  0  0  0  0
  1  2  1  0  0  0  0
  1 11  1  0  0  0  0
  1 12  1  0  0  0  0
  1 13  1  0  0  0  0
  2  3  2  0  0  0  0
  2  9  1  0  0  0  0
  3  4  1  0  0  0  0
  3 14  1  0  0  0  0
  4  5  2  0  0  0  0
  4 15  1  0  0  0  0
  5  6  1  0  0  0  0
  5  7  1  0  0  0  0
  6 16  1  0  0  0  0
  6 17  1  0  0  0  0
  7  8  2  0  0  0  0
  7  9  1  0  0  0  0
  9 10  1  0  0  0  0
 10 18  1  0  0  0  0
 10 19  1  0  0  0  0
 10 20  1  0  0  0  0
M  END
$$$$
