MD_1_clus0
  MOE2019           3D

 20 20  0  0  0  0  0  0  0  0999 V2000
  -20.0553   14.5371   28.6727 C   0  0  0  0  0  0  0  0  0  0  0  0
  -19.2393   15.3392   27.7029 C   0  0  0  0  0  0  0  0  0  0  0  0
  -18.7837   14.7799   26.5072 C   0  0  0  0  0  0  0  0  0  0  0  0
  -18.1065   15.5833   25.6241 C   0  0  0  0  0  0  0  0  0  0  0  0
  -17.6237   15.1239   24.4877 F   0  0  0  0  0  0  0  0  0  0  0  0
  -17.7760   16.9389   26.0022 C   0  0  0  0  0  0  0  0  0  0  0  0
  -18.1371   17.4602   27.2487 C   0  0  0  0  0  0  0  0  0  0  0  0
  -18.9235   16.6741   28.0218 C   0  0  0  0  0  0  0  0  0  0  0  0
  -17.9451   19.1298   27.6792 S   0  0  0  0  0  0  0  0  0  0  0  0
  -18.0422   19.5584   29.0352 O   0  0  0  0  0  0  0  0  0  0  0  0
  -17.3307   19.8897   26.5821 O   0  0  0  0  0  0  0  0  0  0  0  0
  -19.4830   19.4431   27.2400 N   0  0  0  0  0  0  0  0  0  0  0  0
  -20.7061   13.8296   28.1536 H   0  0  0  0  0  0  0  0  0  0  0  0
  -19.4652   13.9328   29.3648 H   0  0  0  0  0  0  0  0  0  0  0  0
  -20.7117   15.1715   29.2709 H   0  0  0  0  0  0  0  0  0  0  0  0
  -18.9735   13.7355   26.2730 H   0  0  0  0  0  0  0  0  0  0  0  0
  -17.2627   17.5494   25.2646 H   0  0  0  0  0  0  0  0  0  0  0  0
  -19.3570   17.1298   28.9081 H   0  0  0  0  0  0  0  0  0  0  0  0
  -19.5464   19.8523   28.1704 H   0  0  0  0  0  0  0  0  0  0  0  0
  -19.2459   20.2996   26.7423 H   0  0  0  0  0  0  0  0  0  0  0  0
  1  2  1  0  0  0  0
  1 13  1  0  0  0  0
  1 14  1  0  0  0  0
  1 15  1  0  0  0  0
  2  3  1  0  0  0  0
  2  8  2  0  0  0  0
  3  4  2  0  0  0  0
  3 16  1  0  0  0  0
  4  5  1  0  0  0  0
  4  6  1  0  0  0  0
  6  7  2  0  0  0  0
  6 17  1  0  0  0  0
  7  8  1  0  0  0  0
  7  9  1  0  0  0  0
  8 18  1  0  0  0  0
  9 10  2  0  0  0  0
  9 11  2  0  0  0  0
  9 12  1  0  0  0  0
 12 19  1  0  0  0  0
 12 20  1  0  0  0  0
M  END
$$$$
