MD_2_clus4
  MOE2019           3D

 26 26  0  0  0  0  0  0  0  0999 V2000
  -17.3008   10.3772   25.6227 C   0  0  0  0  0  0  0  0  0  0  0  0
  -17.8686   11.8792   25.0708 S   0  0  0  0  0  0  0  0  0  0  0  0
  -16.8013   12.6153   24.4737 O   0  0  0  0  0  0  0  0  0  0  0  0
  -19.2089   11.8278   24.5569 O   0  0  0  0  0  0  0  0  0  0  0  0
  -18.2334   12.6429   26.3754 N   0  0  0  0  0  0  0  0  0  0  0  0
  -18.3235   14.1376   26.2670 C   0  0  0  0  0  0  0  0  0  0  0  0
  -18.7797   14.7395   27.5507 C   0  0  0  0  0  0  0  0  0  0  0  0
  -18.9070   16.2099   27.4151 C   0  0  0  0  0  0  0  0  0  0  0  0
  -20.2195   16.8012   27.5498 C   0  0  0  0  0  0  0  0  0  0  0  0
  -20.3849   18.2066   27.3029 C   0  0  0  0  0  0  0  0  0  0  0  0
  -19.2756   18.9493   26.9063 C   0  0  0  0  0  0  0  0  0  0  0  0
  -19.4139   20.2838   26.6029 F   0  0  0  0  0  0  0  0  0  0  0  0
  -17.9828   18.4144   26.8334 C   0  0  0  0  0  0  0  0  0  0  0  0
  -17.7821   17.0414   27.0531 C   0  0  0  0  0  0  0  0  0  0  0  0
  -18.1491    9.6874   25.6334 H   0  0  0  0  0  0  0  0  0  0  0  0
  -16.5701   10.0778   24.8662 H   0  0  0  0  0  0  0  0  0  0  0  0
  -16.8724   10.5685   26.6097 H   0  0  0  0  0  0  0  0  0  0  0  0
  -19.1356   12.1971   26.5276 H   0  0  0  0  0  0  0  0  0  0  0  0
  -17.3181   14.5519   26.1596 H   0  0  0  0  0  0  0  0  0  0  0  0
  -18.9428   14.3851   25.4012 H   0  0  0  0  0  0  0  0  0  0  0  0
  -19.7508   14.3228   27.8285 H   0  0  0  0  0  0  0  0  0  0  0  0
  -18.0816   14.4627   28.3432 H   0  0  0  0  0  0  0  0  0  0  0  0
  -21.0207   16.1265   27.8430 H   0  0  0  0  0  0  0  0  0  0  0  0
  -21.3999   18.5846   27.2036 H   0  0  0  0  0  0  0  0  0  0  0  0
  -17.0706   18.9803   26.6655 H   0  0  0  0  0  0  0  0  0  0  0  0
  -16.7581   16.6828   26.9830 H   0  0  0  0  0  0  0  0  0  0  0  0
  1  2  1  0  0  0  0
  1 15  1  0  0  0  0
  1 16  1  0  0  0  0
  1 17  1  0  0  0  0
  2  3  2  0  0  0  0
  2  4  2  0  0  0  0
  2  5  1  0  0  0  0
  5  6  1  0  0  0  0
  5 18  1  0  0  0  0
  6  7  1  0  0  0  0
  6 19  1  0  0  0  0
  6 20  1  0  0  0  0
  7  8  1  0  0  0  0
  7 21  1  0  0  0  0
  7 22  1  0  0  0  0
  8  9  1  0  0  0  0
  8 14  2  0  0  0  0
  9 10  2  0  0  0  0
  9 23  1  0  0  0  0
 10 11  1  0  0  0  0
 10 24  1  0  0  0  0
 11 12  1  0  0  0  0
 11 13  2  0  0  0  0
 13 14  1  0  0  0  0
 13 25  1  0  0  0  0
 14 26  1  0  0  0  0
M  END
$$$$
