MD_1_clus2
  MOE2019           3D

 23 23  0  0  0  0  0  0  0  0999 V2000
  -22.8272   12.2050   26.8495 C   0  0  0  0  0  0  0  0  0  0  0  0
  -21.7975   11.5726   26.0466 N   0  0  0  0  0  0  0  0  0  0  0  0
  -22.1833   10.4667   25.1950 C   0  0  0  0  0  0  0  0  0  0  0  0
  -22.9163   10.9837   23.9412 C   0  0  0  0  0  0  0  0  0  0  0  0
  -22.0049   11.6990   23.0969 O   0  0  0  0  0  0  0  0  0  0  0  0
  -20.5593   12.0980   26.0471 C   0  0  0  0  0  0  0  0  0  0  0  0
  -19.8659   12.3408   27.2200 C   0  0  0  0  0  0  0  0  0  0  0  0
  -18.6279   13.0182   27.1599 C   0  0  0  0  0  0  0  0  0  0  0  0
  -18.1981   13.4481   25.8948 C   0  0  0  0  0  0  0  0  0  0  0  0
  -18.9007   13.1111   24.7427 C   0  0  0  0  0  0  0  0  0  0  0  0
  -20.0493   12.4224   24.8659 N   0  0  0  0  0  0  0  0  0  0  0  0
  -23.8376   11.9595   26.5102 H   0  0  0  0  0  0  0  0  0  0  0  0
  -22.7935   11.7627   27.8481 H   0  0  0  0  0  0  0  0  0  0  0  0
  -22.6978   13.2903   26.8195 H   0  0  0  0  0  0  0  0  0  0  0  0
  -21.2676    9.9381   24.9197 H   0  0  0  0  0  0  0  0  0  0  0  0
  -22.7904    9.7826   25.7925 H   0  0  0  0  0  0  0  0  0  0  0  0
  -23.2876   10.1248   23.3757 H   0  0  0  0  0  0  0  0  0  0  0  0
  -23.7991   11.5142   24.3047 H   0  0  0  0  0  0  0  0  0  0  0  0
  -21.5698   12.3335   23.6940 H   0  0  0  0  0  0  0  0  0  0  0  0
  -20.2624   12.1778   28.2189 H   0  0  0  0  0  0  0  0  0  0  0  0
  -18.0096   13.2877   28.0125 H   0  0  0  0  0  0  0  0  0  0  0  0
  -17.2478   13.9718   25.8390 H   0  0  0  0  0  0  0  0  0  0  0  0
  -18.4508   13.2770   23.7659 H   0  0  0  0  0  0  0  0  0  0  0  0
  1  2  1  0  0  0  0
  1 12  1  0  0  0  0
  1 13  1  0  0  0  0
  1 14  1  0  0  0  0
  2  3  1  0  0  0  0
  2  6  1  0  0  0  0
  3  4  1  0  0  0  0
  3 15  1  0  0  0  0
  3 16  1  0  0  0  0
  4  5  1  0  0  0  0
  4 17  1  0  0  0  0
  4 18  1  0  0  0  0
  5 19  1  0  0  0  0
  6  7  1  0  0  0  0
  6 11  2  0  0  0  0
  7  8  2  0  0  0  0
  7 20  1  0  0  0  0
  8  9  1  0  0  0  0
  8 21  1  0  0  0  0
  9 10  2  0  0  0  0
  9 22  1  0  0  0  0
 10 11  1  0  0  0  0
 10 23  1  0  0  0  0
M  END
$$$$
