MD_2_clus3
  MOE2019           3D

 23 23  0  0  0  0  0  0  0  0999 V2000
  -19.2066   16.7297   27.8803 C   0  0  0  0  0  0  0  0  0  0  0  0
  -20.4908   16.7809   26.9802 C   0  0  0  0  0  0  0  0  0  0  0  0
  -21.0225   18.2348   26.8618 C   0  0  0  0  0  0  0  0  0  0  0  0
  -20.3685   16.0944   25.5994 C   0  0  0  0  0  0  0  0  0  0  0  0
  -19.4224   16.5967   24.8357 N   0  0  0  0  0  0  0  0  0  0  0  0
  -19.2212   15.8760   23.7420 C   0  0  0  0  0  0  0  0  0  0  0  0
  -19.8804   14.7643   23.3393 C   0  0  0  0  0  0  0  0  0  0  0  0
  -19.3536   13.9435   21.9285 C   0  0  0  0  0  0  0  0  0  0  0  0
  -20.9601   14.4068   24.1414 C   0  0  0  0  0  0  0  0  0  0  0  0
  -21.2065   15.0848   25.3021 N   0  0  0  0  0  0  0  0  0  0  0  0
  -21.9402   13.2547   23.8588 C   0  0  0  0  0  0  0  0  0  0  0  0
  -23.1336   13.2195   24.0504 O   0  0  0  0  0  0  0  0  0  0  0  0
  -21.5052   12.1132   23.2959 N   0  0  0  0  0  0  0  0  0  0  0  0
  -19.2498   17.5079   28.6455 H   0  0  0  0  0  0  0  0  0  0  0  0
  -19.0775   15.8017   28.4405 H   0  0  0  0  0  0  0  0  0  0  0  0
  -18.3487   16.9119   27.2299 H   0  0  0  0  0  0  0  0  0  0  0  0
  -21.3520   16.2591   27.4038 H   0  0  0  0  0  0  0  0  0  0  0  0
  -21.1137   18.7000   27.8458 H   0  0  0  0  0  0  0  0  0  0  0  0
  -20.3688   18.8456   26.2359 H   0  0  0  0  0  0  0  0  0  0  0  0
  -22.0238   18.2356   26.4261 H   0  0  0  0  0  0  0  0  0  0  0  0
  -18.3982   16.2274   23.1236 H   0  0  0  0  0  0  0  0  0  0  0  0
  -22.1726   11.3561   23.3091 H   0  0  0  0  0  0  0  0  0  0  0  0
  -20.5037   11.9946   23.3084 H   0  0  0  0  0  0  0  0  0  0  0  0
  1  2  1  0  0  0  0
  1 14  1  0  0  0  0
  1 15  1  0  0  0  0
  1 16  1  0  0  0  0
  2  3  1  0  0  0  0
  2  4  1  0  0  0  0
  2 17  1  0  0  0  0
  3 18  1  0  0  0  0
  3 19  1  0  0  0  0
  3 20  1  0  0  0  0
  4  5  1  0  0  0  0
  4 10  2  0  0  0  0
  5  6  2  0  0  0  0
  6  7  1  0  0  0  0
  6 21  1  0  0  0  0
  7  8  1  0  0  0  0
  7  9  2  0  0  0  0
  9 10  1  0  0  0  0
  9 11  1  0  0  0  0
 11 12  2  0  0  0  0
 11 13  1  0  0  0  0
 13 22  1  0  0  0  0
 13 23  1  0  0  0  0
M  END
$$$$
