MD_2_clus5
  MOE2019           3D

 35 37  0  0  0  0  0  0  0  0999 V2000
  -16.9987   10.3097   22.7492 F   0  0  0  0  0  0  0  0  0  0  0  0
  -17.1572   11.2037   23.7754 C   0  0  0  0  0  0  0  0  0  0  0  0
  -16.3283   12.3726   23.9692 C   0  0  0  0  0  0  0  0  0  0  0  0
  -16.5789   13.1826   25.1155 C   0  0  0  0  0  0  0  0  0  0  0  0
  -17.5511   12.9088   26.0547 C   0  0  0  0  0  0  0  0  0  0  0  0
  -18.3562   11.7856   25.7662 C   0  0  0  0  0  0  0  0  0  0  0  0
  -18.1363   10.9692   24.6722 C   0  0  0  0  0  0  0  0  0  0  0  0
  -17.7266   13.6530   27.1769 N   0  0  0  0  0  0  0  0  0  0  0  0
  -17.6963   15.1115   27.1828 C   0  0  0  0  0  0  0  0  0  0  0  0
  -19.1285   15.7234   27.4418 C   0  0  0  0  0  0  0  0  0  0  0  0
  -20.0785   15.0108   28.3224 N   0  0  0  0  0  0  0  0  0  0  0  0
  -19.7085   13.6205   28.7743 C   0  0  0  0  0  0  0  0  0  0  0  0
  -18.2359   13.1393   28.4858 C   0  0  0  0  0  0  0  0  0  0  0  0
  -21.1808   15.6377   28.6613 C   0  0  0  0  0  0  0  0  0  0  0  0
  -21.4298   16.7671   28.2012 O   0  0  0  0  0  0  0  0  0  0  0  0
  -22.1104   14.9833   29.6670 C   0  0  0  0  0  0  0  0  0  0  0  0
  -23.3637   14.4538   29.1438 C   0  0  0  0  0  0  0  0  0  0  0  0
  -23.3935   15.5561   30.1415 C   0  0  0  0  0  0  0  0  0  0  0  0
  -15.6701   12.6852   23.1619 H   0  0  0  0  0  0  0  0  0  0  0  0
  -15.9203   14.0430   25.2123 H   0  0  0  0  0  0  0  0  0  0  0  0
  -19.1376   11.5888   26.4967 H   0  0  0  0  0  0  0  0  0  0  0  0
  -18.6397   10.0082   24.6051 H   0  0  0  0  0  0  0  0  0  0  0  0
  -17.0663   15.3615   28.0394 H   0  0  0  0  0  0  0  0  0  0  0  0
  -17.3547   15.5927   26.2627 H   0  0  0  0  0  0  0  0  0  0  0  0
  -18.8743   16.6907   27.8831 H   0  0  0  0  0  0  0  0  0  0  0  0
  -19.6275   16.0007   26.5100 H   0  0  0  0  0  0  0  0  0  0  0  0
  -19.7541   13.5066   29.8603 H   0  0  0  0  0  0  0  0  0  0  0  0
  -20.4486   13.0204   28.2388 H   0  0  0  0  0  0  0  0  0  0  0  0
  -18.1887   12.0476   28.5121 H   0  0  0  0  0  0  0  0  0  0  0  0
  -17.5375   13.5284   29.2314 H   0  0  0  0  0  0  0  0  0  0  0  0
  -21.5768   14.3183   30.3400 H   0  0  0  0  0  0  0  0  0  0  0  0
  -23.6210   14.6939   28.1163 H   0  0  0  0  0  0  0  0  0  0  0  0
  -23.6934   13.4844   29.5045 H   0  0  0  0  0  0  0  0  0  0  0  0
  -23.6867   15.3061   31.1575 H   0  0  0  0  0  0  0  0  0  0  0  0
  -23.7832   16.5017   29.7760 H   0  0  0  0  0  0  0  0  0  0  0  0
  1  2  1  0  0  0  0
  2  3  1  0  0  0  0
  2  7  2  0  0  0  0
  3  4  2  0  0  0  0
  3 19  1  0  0  0  0
  4  5  1  0  0  0  0
  4 20  1  0  0  0  0
  5  6  2  0  0  0  0
  5  8  1  0  0  0  0
  6  7  1  0  0  0  0
  6 21  1  0  0  0  0
  7 22  1  0  0  0  0
  8  9  1  0  0  0  0
  8 13  1  0  0  0  0
  9 10  1  0  0  0  0
  9 23  1  0  0  0  0
  9 24  1  0  0  0  0
 10 11  1  0  0  0  0
 10 25  1  0  0  0  0
 10 26  1  0  0  0  0
 11 12  1  0  0  0  0
 11 14  1  0  0  0  0
 12 13  1  0  0  0  0
 12 27  1  0  0  0  0
 12 28  1  0  0  0  0
 13 29  1  0  0  0  0
 13 30  1  0  0  0  0
 14 15  2  0  0  0  0
 14 16  1  0  0  0  0
 16 17  1  0  0  0  0
 16 18  1  0  0  0  0
 16 31  1  0  0  0  0
 17 18  1  0  0  0  0
 17 32  1  0  0  0  0
 17 33  1  0  0  0  0
 18 34  1  0  0  0  0
 18 35  1  0  0  0  0
M  END
$$$$
