MD_3_clus3
  MOE2019           3D

 23 24  0  0  0  0  0  0  0  0999 V2000
  -16.8403   18.8759   26.4482 O   0  0  0  0  0  0  0  0  0  0  0  0
  -17.9118   18.3262   26.6444 C   0  0  0  0  0  0  0  0  0  0  0  0
  -18.0009   16.9539   26.8256 N   0  0  0  0  0  0  0  0  0  0  0  0
  -19.1208   16.0313   26.9391 C   0  0  0  0  0  0  0  0  0  0  0  0
  -18.7226   14.5991   27.2781 C   0  0  0  0  0  0  0  0  0  0  0  0
  -17.2417   14.6619   27.2060 C   0  0  0  0  0  0  0  0  0  0  0  0
  -16.8388   16.1152   26.7083 C   0  0  0  0  0  0  0  0  0  0  0  0
  -19.0859   19.1241   26.4209 C   0  0  0  0  0  0  0  0  0  0  0  0
  -20.4433   18.7820   26.7226 C   0  0  0  0  0  0  0  0  0  0  0  0
  -21.1613   19.8014   26.1814 N   0  0  0  0  0  0  0  0  0  0  0  0
  -20.3240   20.7693   25.8228 N   0  0  0  0  0  0  0  0  0  0  0  0
  -19.0449   20.3695   25.8739 C   0  0  0  0  0  0  0  0  0  0  0  0
  -19.8441   16.3722   27.6840 H   0  0  0  0  0  0  0  0  0  0  0  0
  -19.6002   16.0901   25.9577 H   0  0  0  0  0  0  0  0  0  0  0  0
  -19.0437   14.3190   28.2835 H   0  0  0  0  0  0  0  0  0  0  0  0
  -19.1304   13.8810   26.5635 H   0  0  0  0  0  0  0  0  0  0  0  0
  -16.9228   14.5892   28.2471 H   0  0  0  0  0  0  0  0  0  0  0  0
  -16.8657   13.9455   26.4719 H   0  0  0  0  0  0  0  0  0  0  0  0
  -16.3966   16.0295   25.7116 H   0  0  0  0  0  0  0  0  0  0  0  0
  -16.0800   16.4556   27.4181 H   0  0  0  0  0  0  0  0  0  0  0  0
  -20.9461   17.9479   27.1966 H   0  0  0  0  0  0  0  0  0  0  0  0
  -20.6680   21.6331   25.4269 H   0  0  0  0  0  0  0  0  0  0  0  0
  -18.1977   21.0166   25.6793 H   0  0  0  0  0  0  0  0  0  0  0  0
  1  2  2  0  0  0  0
  2  3  1  0  0  0  0
  2  8  1  0  0  0  0
  3  4  1  0  0  0  0
  3  7  1  0  0  0  0
  4  5  1  0  0  0  0
  4 13  1  0  0  0  0
  4 14  1  0  0  0  0
  5  6  1  0  0  0  0
  5 15  1  0  0  0  0
  5 16  1  0  0  0  0
  6  7  1  0  0  0  0
  6 17  1  0  0  0  0
  6 18  1  0  0  0  0
  7 19  1  0  0  0  0
  7 20  1  0  0  0  0
  8  9  1  0  0  0  0
  8 12  2  0  0  0  0
  9 10  2  0  0  0  0
  9 21  1  0  0  0  0
 10 11  1  0  0  0  0
 11 12  1  0  0  0  0
 11 22  1  0  0  0  0
 12 23  1  0  0  0  0
M  END
$$$$
