MD_1_clus1
  MOE2019           3D

 22 22  0  0  0  0  0  0  0  0999 V2000
  -18.1287   14.7321   27.7621 C   0  0  0  0  0  0  0  0  0  0  0  0
  -18.8127   14.7074   26.4191 C   0  0  0  0  0  0  0  0  0  0  0  0
  -18.3073   13.5784   25.6059 N   0  0  0  0  0  0  0  0  0  0  0  0
  -17.1888   13.5531   24.7897 C   0  0  0  0  0  0  0  0  0  0  0  0
  -17.2517   12.3288   24.2072 C   0  0  0  0  0  0  0  0  0  0  0  0
  -16.2970   11.9672   23.1128 C   0  0  0  0  0  0  0  0  0  0  0  0
  -15.1103   11.0425   23.5527 C   0  0  0  0  0  0  0  0  0  0  0  0
  -14.5041   10.4401   22.4241 O   0  0  0  0  0  0  0  0  0  0  0  0
  -18.4620   11.7289   24.6313 C   0  0  0  0  0  0  0  0  0  0  0  0
  -19.0709   12.5276   25.5076 N   0  0  0  0  0  0  0  0  0  0  0  0
  -17.0682   14.9422   27.6075 H   0  0  0  0  0  0  0  0  0  0  0  0
  -18.6306   15.4330   28.4327 H   0  0  0  0  0  0  0  0  0  0  0  0
  -18.2828   13.7315   28.1731 H   0  0  0  0  0  0  0  0  0  0  0  0
  -19.8994   14.6357   26.5073 H   0  0  0  0  0  0  0  0  0  0  0  0
  -18.6498   15.6103   25.8237 H   0  0  0  0  0  0  0  0  0  0  0  0
  -16.5042   14.3915   24.7440 H   0  0  0  0  0  0  0  0  0  0  0  0
  -16.9297   11.6111   22.2968 H   0  0  0  0  0  0  0  0  0  0  0  0
  -15.7992   12.8161   22.6412 H   0  0  0  0  0  0  0  0  0  0  0  0
  -14.3659   11.6767   24.0418 H   0  0  0  0  0  0  0  0  0  0  0  0
  -15.4573   10.2612   24.2330 H   0  0  0  0  0  0  0  0  0  0  0  0
  -14.2260   11.1341   21.8006 H   0  0  0  0  0  0  0  0  0  0  0  0
  -18.9262   10.7840   24.3745 H   0  0  0  0  0  0  0  0  0  0  0  0
  1  2  1  0  0  0  0
  1 11  1  0  0  0  0
  1 12  1  0  0  0  0
  1 13  1  0  0  0  0
  2  3  1  0  0  0  0
  2 14  1  0  0  0  0
  2 15  1  0  0  0  0
  3  4  1  0  0  0  0
  3 10  1  0  0  0  0
  4  5  2  0  0  0  0
  4 16  1  0  0  0  0
  5  6  1  0  0  0  0
  5  9  1  0  0  0  0
  6  7  1  0  0  0  0
  6 17  1  0  0  0  0
  6 18  1  0  0  0  0
  7  8  1  0  0  0  0
  7 19  1  0  0  0  0
  7 20  1  0  0  0  0
  8 21  1  0  0  0  0
  9 10  2  0  0  0  0
  9 22  1  0  0  0  0
M  END
$$$$
