MD_2_clus0
  MOE2019           3D

 16 16  0  0  0  0  0  0  0  0999 V2000
  -19.3717   13.0060   25.7270 C   0  0  0  0  0  0  0  0  0  0  0  0
  -18.6881   14.8176   26.1618 Br  0  0  0  0  0  0  0  0  0  0  0  0
  -20.5335   12.4237   26.2026 C   0  0  0  0  0  0  0  0  0  0  0  0
  -20.6420   11.1662   25.5874 N   0  0  0  0  0  0  0  0  0  0  0  0
  -21.8049   10.2656   25.5882 C   0  0  0  0  0  0  0  0  0  0  0  0
  -23.0555   10.9227   25.1100 C   0  0  0  0  0  0  0  0  0  0  0  0
  -23.9391    9.9042   24.7838 O   0  0  0  0  0  0  0  0  0  0  0  0
  -19.5908   10.9313   24.7171 N   0  0  0  0  0  0  0  0  0  0  0  0
  -18.7405   12.0150   24.8326 C   0  0  0  0  0  0  0  0  0  0  0  0
  -21.1423   12.6910   27.0585 H   0  0  0  0  0  0  0  0  0  0  0  0
  -21.5094    9.4493   24.9227 H   0  0  0  0  0  0  0  0  0  0  0  0
  -21.9790    9.7748   26.5489 H   0  0  0  0  0  0  0  0  0  0  0  0
  -23.4664   11.6622   25.8017 H   0  0  0  0  0  0  0  0  0  0  0  0
  -22.8364   11.5817   24.2665 H   0  0  0  0  0  0  0  0  0  0  0  0
  -23.3506    9.3622   24.2282 H   0  0  0  0  0  0  0  0  0  0  0  0
  -17.8394   12.0129   24.2312 H   0  0  0  0  0  0  0  0  0  0  0  0
  1  2  1  0  0  0  0
  1  3  2  0  0  0  0
  1  9  1  0  0  0  0
  3  4  1  0  0  0  0
  3 10  1  0  0  0  0
  4  5  1  0  0  0  0
  4  8  1  0  0  0  0
  5  6  1  0  0  0  0
  5 11  1  0  0  0  0
  5 12  1  0  0  0  0
  6  7  1  0  0  0  0
  6 13  1  0  0  0  0
  6 14  1  0  0  0  0
  7 15  1  0  0  0  0
  8  9  2  0  0  0  0
  9 16  1  0  0  0  0
M  END
$$$$
