MD_1_clus3
  MOE2019           3D

 14 14  0  0  0  0  0  0  0  0999 V2000
  -24.1095   11.9997   29.6808 C   0  0  0  0  0  0  0  0  0  0  0  0
  -23.9942   13.1386   30.6543 C   0  0  0  0  0  0  0  0  0  0  0  0
  -23.0863   12.9398   31.7126 C   0  0  0  0  0  0  0  0  0  0  0  0
  -22.8205   14.0768   32.3501 C   0  0  0  0  0  0  0  0  0  0  0  0
  -23.7220   15.4713   31.6631 S   0  0  0  0  0  0  0  0  0  0  0  0
  -24.4645   14.4491   30.4678 C   0  0  0  0  0  0  0  0  0  0  0  0
  -25.2618   14.9531   29.4482 C   0  0  0  0  0  0  0  0  0  0  0  0
  -25.9044   14.2348   28.6539 O   0  0  0  0  0  0  0  0  0  0  0  0
  -25.5836   16.1330   29.4852 O   0  5  0  0  0  0  0  0  0  0  0  0
  -23.5726   11.0997   29.9884 H   0  0  0  0  0  0  0  0  0  0  0  0
  -25.1525   11.8123   29.4172 H   0  0  0  0  0  0  0  0  0  0  0  0
  -23.5819   12.2838   28.7682 H   0  0  0  0  0  0  0  0  0  0  0  0
  -22.7273   11.9560   31.9975 H   0  0  0  0  0  0  0  0  0  0  0  0
  -22.1138   14.3027   33.1394 H   0  0  0  0  0  0  0  0  0  0  0  0
  1  2  1  0  0  0  0
  1 10  1  0  0  0  0
  1 11  1  0  0  0  0
  1 12  1  0  0  0  0
  2  3  1  0  0  0  0
  2  6  2  0  0  0  0
  3  4  2  0  0  0  0
  3 13  1  0  0  0  0
  4  5  1  0  0  0  0
  4 14  1  0  0  0  0
  5  6  1  0  0  0  0
  6  7  1  0  0  0  0
  7  8  2  0  0  0  0
  7  9  1  0  0  0  0
M  CHG  1   9  -1
M  END
$$$$
