MD_1_clus12
  MOE2019           3D

 24 25  0  0  0  0  0  0  0  0999 V2000
  -23.1117   13.1261   28.8160 F   0  0  0  0  0  0  0  0  0  0  0  0
  -23.1607   12.4014   27.6920 C   0  0  0  0  0  0  0  0  0  0  0  0
  -24.3341   11.7907   27.3156 C   0  0  0  0  0  0  0  0  0  0  0  0
  -24.3556   11.0723   26.0778 C   0  0  0  0  0  0  0  0  0  0  0  0
  -23.2432   11.0592   25.2230 C   0  0  0  0  0  0  0  0  0  0  0  0
  -22.0766   11.5612   25.7074 C   0  0  0  0  0  0  0  0  0  0  0  0
  -22.0539   12.3622   26.8668 C   0  0  0  0  0  0  0  0  0  0  0  0
  -20.9580   13.0203   27.2458 N   0  0  0  0  0  0  0  0  0  0  0  0
  -19.5695   12.5897   26.9637 C   0  0  0  0  0  0  0  0  0  0  0  0
  -19.0827   12.8001   25.5784 C   0  0  0  0  0  0  0  0  0  0  0  0
  -18.7163   14.1554   25.1893 C   0  0  0  0  0  0  0  0  0  0  0  0
  -18.1358   14.0610   23.9558 C   0  0  0  0  0  0  0  0  0  0  0  0
  -18.0805   12.7401   23.6686 N   0  0  0  0  0  0  0  0  0  0  0  0
  -18.7526   11.9443   24.5869 N   0  0  0  0  0  0  0  0  0  0  0  0
  -25.2956   11.8757   27.8150 H   0  0  0  0  0  0  0  0  0  0  0  0
  -25.2651   10.5943   25.7240 H   0  0  0  0  0  0  0  0  0  0  0  0
  -23.2330   10.5855   24.2448 H   0  0  0  0  0  0  0  0  0  0  0  0
  -21.1893   11.4063   25.0984 H   0  0  0  0  0  0  0  0  0  0  0  0
  -21.1027   13.6929   27.9900 H   0  0  0  0  0  0  0  0  0  0  0  0
  -18.9949   13.1448   27.7088 H   0  0  0  0  0  0  0  0  0  0  0  0
  -19.4442   11.5132   27.1076 H   0  0  0  0  0  0  0  0  0  0  0  0
  -18.8459   14.9819   25.8804 H   0  0  0  0  0  0  0  0  0  0  0  0
  -17.6392   14.7716   23.3063 H   0  0  0  0  0  0  0  0  0  0  0  0
  -17.5907   12.3684   22.8652 H   0  0  0  0  0  0  0  0  0  0  0  0
  1  2  1  0  0  0  0
  2  3  1  0  0  0  0
  2  7  2  0  0  0  0
  3  4  2  0  0  0  0
  3 15  1  0  0  0  0
  4  5  1  0  0  0  0
  4 16  1  0  0  0  0
  5  6  2  0  0  0  0
  5 17  1  0  0  0  0
  6  7  1  0  0  0  0
  6 18  1  0  0  0  0
  7  8  1  0  0  0  0
  8  9  1  0  0  0  0
  8 19  1  0  0  0  0
  9 10  1  0  0  0  0
  9 20  1  0  0  0  0
  9 21  1  0  0  0  0
 10 11  1  0  0  0  0
 10 14  2  0  0  0  0
 11 12  2  0  0  0  0
 11 22  1  0  0  0  0
 12 13  1  0  0  0  0
 12 23  1  0  0  0  0
 13 14  1  0  0  0  0
 13 24  1  0  0  0  0
M  END
$$$$
