MD_3_clus5
  MOE2019           3D

 26 26  0  0  0  0  0  0  0  0999 V2000
  -15.8911   19.6623   25.5862 C   0  0  0  0  0  0  0  0  0  0  0  0
  -16.5727   19.3956   27.1090 S   0  0  0  0  0  0  0  0  0  0  0  0
  -15.6911   18.4850   27.8013 O   0  0  0  0  0  0  0  0  0  0  0  0
  -17.0258   20.6671   27.5856 O   0  0  0  0  0  0  0  0  0  0  0  0
  -17.9006   18.5532   26.8653 N   0  0  0  0  0  0  0  0  0  0  0  0
  -17.5980   17.1725   26.6316 C   0  0  0  0  0  0  0  0  0  0  0  0
  -18.8033   16.2320   26.4068 C   0  0  0  0  0  0  0  0  0  0  0  0
  -18.4504   14.7914   26.0124 C   0  0  0  0  0  0  0  0  0  0  0  0
  -18.3219   13.7661   26.8608 C   0  0  0  0  0  0  0  0  0  0  0  0
  -18.0547   12.5198   26.3963 C   0  0  0  0  0  0  0  0  0  0  0  0
  -17.9741   12.2347   25.0256 C   0  0  0  0  0  0  0  0  0  0  0  0
  -17.7350   10.9865   24.5551 F   0  0  0  0  0  0  0  0  0  0  0  0
  -18.0915   13.3032   24.1533 C   0  0  0  0  0  0  0  0  0  0  0  0
  -18.3485   14.6184   24.6149 C   0  0  0  0  0  0  0  0  0  0  0  0
  -15.6856   18.6835   25.1462 H   0  0  0  0  0  0  0  0  0  0  0  0
  -16.6298   20.2401   25.0251 H   0  0  0  0  0  0  0  0  0  0  0  0
  -14.9943   20.2099   25.8887 H   0  0  0  0  0  0  0  0  0  0  0  0
  -18.4042   18.7552   27.7265 H   0  0  0  0  0  0  0  0  0  0  0  0
  -17.0913   16.9446   25.6908 H   0  0  0  0  0  0  0  0  0  0  0  0
  -17.1393   16.6558   27.4788 H   0  0  0  0  0  0  0  0  0  0  0  0
  -19.5130   16.3358   27.2297 H   0  0  0  0  0  0  0  0  0  0  0  0
  -19.3617   16.6892   25.5871 H   0  0  0  0  0  0  0  0  0  0  0  0
  -18.3126   14.0095   27.9201 H   0  0  0  0  0  0  0  0  0  0  0  0
  -17.7713   11.7422   27.1008 H   0  0  0  0  0  0  0  0  0  0  0  0
  -18.0225   13.0910   23.0892 H   0  0  0  0  0  0  0  0  0  0  0  0
  -18.4141   15.4698   23.9411 H   0  0  0  0  0  0  0  0  0  0  0  0
  1  2  1  0  0  0  0
  1 15  1  0  0  0  0
  1 16  1  0  0  0  0
  1 17  1  0  0  0  0
  2  3  2  0  0  0  0
  2  4  2  0  0  0  0
  2  5  1  0  0  0  0
  5  6  1  0  0  0  0
  5 18  1  0  0  0  0
  6  7  1  0  0  0  0
  6 19  1  0  0  0  0
  6 20  1  0  0  0  0
  7  8  1  0  0  0  0
  7 21  1  0  0  0  0
  7 22  1  0  0  0  0
  8  9  1  0  0  0  0
  8 14  2  0  0  0  0
  9 10  2  0  0  0  0
  9 23  1  0  0  0  0
 10 11  1  0  0  0  0
 10 24  1  0  0  0  0
 11 12  1  0  0  0  0
 11 13  2  0  0  0  0
 13 14  1  0  0  0  0
 13 25  1  0  0  0  0
 14 26  1  0  0  0  0
M  END
$$$$
