MD_3_clus3
  MOE2019           3D

 16 17  0  0  0  0  0  0  0  0999 V2000
  -23.0358   12.2405   27.0067 C   0  0  0  0  0  0  0  0  0  0  0  0
  -23.7446   13.0199   28.6884 Br  0  0  0  0  0  0  0  0  0  0  0  0
  -23.8301   11.5666   26.1276 C   0  0  0  0  0  0  0  0  0  0  0  0
  -23.3246   11.0700   24.9676 C   0  0  0  0  0  0  0  0  0  0  0  0
  -22.0171   11.1180   24.6633 N   0  0  0  0  0  0  0  0  0  0  0  0
  -21.2227   11.7795   25.5137 C   0  0  0  0  0  0  0  0  0  0  0  0
  -19.9527   12.0027   25.1182 N   0  0  0  0  0  0  0  0  0  0  0  0
  -19.0713   12.7431   25.8901 C   0  0  0  0  0  0  0  0  0  0  0  0
  -19.5224   13.3068   27.0354 C   0  0  0  0  0  0  0  0  0  0  0  0
  -20.7998   13.0658   27.4392 C   0  0  0  0  0  0  0  0  0  0  0  0
  -21.6811   12.3476   26.6442 C   0  0  0  0  0  0  0  0  0  0  0  0
  -24.9040   11.5117   26.2842 H   0  0  0  0  0  0  0  0  0  0  0  0
  -23.8253   10.3394   24.3362 H   0  0  0  0  0  0  0  0  0  0  0  0
  -18.0707   12.8982   25.4933 H   0  0  0  0  0  0  0  0  0  0  0  0
  -18.8645   13.8457   27.7129 H   0  0  0  0  0  0  0  0  0  0  0  0
  -21.0417   13.5873   28.3621 H   0  0  0  0  0  0  0  0  0  0  0  0
  1  2  1  0  0  0  0
  1  3  1  0  0  0  0
  1 11  2  0  0  0  0
  3  4  2  0  0  0  0
  3 12  1  0  0  0  0
  4  5  1  0  0  0  0
  4 13  1  0  0  0  0
  5  6  2  0  0  0  0
  6  7  1  0  0  0  0
  6 11  1  0  0  0  0
  7  8  2  0  0  0  0
  8  9  1  0  0  0  0
  8 14  1  0  0  0  0
  9 10  2  0  0  0  0
  9 15  1  0  0  0  0
 10 11  1  0  0  0  0
 10 16  1  0  0  0  0
M  END
$$$$
