MD_1_clus2
  MOE2019           3D

 16 16  0  0  0  0  0  0  0  0999 V2000
  -20.4166   14.3810   27.2646 Br  0  0  0  0  0  0  0  0  0  0  0  0
  -19.2571   13.3270   26.0468 C   0  0  0  0  0  0  0  0  0  0  0  0
  -17.9503   13.5159   25.6984 C   0  0  0  0  0  0  0  0  0  0  0  0
  -17.6844   12.5819   24.7764 N   0  0  0  0  0  0  0  0  0  0  0  0
  -16.3981   12.4079   24.0535 C   0  0  0  0  0  0  0  0  0  0  0  0
  -16.6474   11.6032   22.7583 C   0  0  0  0  0  0  0  0  0  0  0  0
  -16.8026   10.2247   23.1259 O   0  0  0  0  0  0  0  0  0  0  0  0
  -18.6973   11.6719   24.5983 N   0  0  0  0  0  0  0  0  0  0  0  0
  -19.7387   12.1899   25.3369 C   0  0  0  0  0  0  0  0  0  0  0  0
  -17.1909   14.2675   25.8757 H   0  0  0  0  0  0  0  0  0  0  0  0
  -15.9984   13.3937   23.8016 H   0  0  0  0  0  0  0  0  0  0  0  0
  -15.7089   11.9205   24.7482 H   0  0  0  0  0  0  0  0  0  0  0  0
  -17.5321   11.9463   22.2158 H   0  0  0  0  0  0  0  0  0  0  0  0
  -15.8519   11.8062   22.0371 H   0  0  0  0  0  0  0  0  0  0  0  0
  -17.5562   10.1120   23.7335 H   0  0  0  0  0  0  0  0  0  0  0  0
  -20.7242   11.7420   25.3208 H   0  0  0  0  0  0  0  0  0  0  0  0
  1  2  1  0  0  0  0
  2  3  2  0  0  0  0
  2  9  1  0  0  0  0
  3  4  1  0  0  0  0
  3 10  1  0  0  0  0
  4  5  1  0  0  0  0
  4  8  1  0  0  0  0
  5  6  1  0  0  0  0
  5 11  1  0  0  0  0
  5 12  1  0  0  0  0
  6  7  1  0  0  0  0
  6 13  1  0  0  0  0
  6 14  1  0  0  0  0
  7 15  1  0  0  0  0
  8  9  2  0  0  0  0
  9 16  1  0  0  0  0
M  END
$$$$
