MD_2_clus0
  MOE2019           3D

 21 21  0  0  0  0  0  0  0  0999 V2000
  -19.6314   16.0931   27.5707 C   0  0  0  0  0  0  0  0  0  0  0  0
  -20.8541   15.4616   27.1141 O   0  0  0  0  0  0  0  0  0  0  0  0
  -21.9624   15.6721   27.8300 C   0  0  0  0  0  0  0  0  0  0  0  0
  -22.2734   14.7994   28.8262 C   0  0  0  0  0  0  0  0  0  0  0  0
  -23.4071   14.9230   29.5572 C   0  0  0  0  0  0  0  0  0  0  0  0
  -24.3761   15.8829   29.1972 C   0  0  0  0  0  0  0  0  0  0  0  0
  -24.0926   16.6986   28.0967 C   0  0  0  0  0  0  0  0  0  0  0  0
  -22.8465   16.6503   27.4197 C   0  0  0  0  0  0  0  0  0  0  0  0
  -22.6716   17.5512   26.1825 C   0  0  0  0  0  0  0  0  0  0  0  0
  -22.5872   18.9671   26.5941 C   0  0  0  0  0  0  0  0  0  0  0  0
  -23.5614   19.5781   26.8611 O   0  0  0  0  0  0  0  0  0  0  0  0
  -21.5946   19.5924   26.1856 O   0  5  0  0  0  0  0  0  0  0  0  0
  -23.6635   14.0485   31.3201 Br  0  0  0  0  0  0  0  0  0  0  0  0
  -18.8411   15.8046   26.8743 H   0  0  0  0  0  0  0  0  0  0  0  0
  -19.7184   17.1798   27.6546 H   0  0  0  0  0  0  0  0  0  0  0  0
  -19.5479   15.6892   28.5827 H   0  0  0  0  0  0  0  0  0  0  0  0
  -21.5013   14.2054   29.3099 H   0  0  0  0  0  0  0  0  0  0  0  0
  -25.3591   15.7533   29.6429 H   0  0  0  0  0  0  0  0  0  0  0  0
  -24.8534   17.3842   27.7324 H   0  0  0  0  0  0  0  0  0  0  0  0
  -21.7949   17.2018   25.6343 H   0  0  0  0  0  0  0  0  0  0  0  0
  -23.5638   17.5226   25.5527 H   0  0  0  0  0  0  0  0  0  0  0  0
  1  2  1  0  0  0  0
  1 14  1  0  0  0  0
  1 15  1  0  0  0  0
  1 16  1  0  0  0  0
  2  3  1  0  0  0  0
  3  4  1  0  0  0  0
  3  8  2  0  0  0  0
  4  5  2  0  0  0  0
  4 17  1  0  0  0  0
  5  6  1  0  0  0  0
  5 13  1  0  0  0  0
  6  7  2  0  0  0  0
  6 18  1  0  0  0  0
  7  8  1  0  0  0  0
  7 19  1  0  0  0  0
  8  9  1  0  0  0  0
  9 10  1  0  0  0  0
  9 20  1  0  0  0  0
  9 21  1  0  0  0  0
 10 11  2  0  0  0  0
 10 12  1  0  0  0  0
M  CHG  1  12  -1
M  END
$$$$
