MD_3_clus0
  MOE2019           3D

 30 31  0  0  0  0  0  0  0  0999 V2000
  -18.6400   13.5970   24.9526 C   0  0  0  0  0  0  0  0  0  0  0  0
  -17.8352   14.4679   25.9003 C   0  0  0  0  0  0  0  0  0  0  0  0
  -18.6358   15.0977   26.9997 N   0  0  0  0  0  0  0  0  0  0  0  0
  -18.5911   14.3727   28.2329 C   0  0  0  0  0  0  0  0  0  0  0  0
  -17.1248   14.3883   28.7596 C   0  0  0  0  0  0  0  0  0  0  0  0
  -19.0874   16.3756   27.0070 C   0  0  0  0  0  0  0  0  0  0  0  0
  -18.3494   17.4608   26.5827 C   0  0  0  0  0  0  0  0  0  0  0  0
  -18.7867   18.8263   26.6409 C   0  0  0  0  0  0  0  0  0  0  0  0
  -17.7750   19.8578   26.1567 C   0  0  0  0  0  0  0  0  0  0  0  0
  -20.0937   19.0893   26.9936 N   0  0  0  0  0  0  0  0  0  0  0  0
  -20.7757   17.9652   27.3434 C   0  0  0  0  0  0  0  0  0  0  0  0
  -22.0907   18.0544   27.6728 N   0  0  0  0  0  0  0  0  0  0  0  0
  -22.3381   16.7611   28.0629 C   0  0  0  0  0  0  0  0  0  0  0  0
  -21.2919   15.9102   27.9417 N   0  0  0  0  0  0  0  0  0  0  0  0
  -20.3284   16.7105   27.5089 N   0  0  0  0  0  0  0  0  0  0  0  0
  -18.8858   12.6424   25.4225 H   0  0  0  0  0  0  0  0  0  0  0  0
  -19.5991   14.0802   24.7563 H   0  0  0  0  0  0  0  0  0  0  0  0
  -18.1615   13.4899   23.9770 H   0  0  0  0  0  0  0  0  0  0  0  0
  -16.8643   14.0645   26.1982 H   0  0  0  0  0  0  0  0  0  0  0  0
  -17.5337   15.2869   25.2422 H   0  0  0  0  0  0  0  0  0  0  0  0
  -19.2318   14.8674   28.9674 H   0  0  0  0  0  0  0  0  0  0  0  0
  -18.8273   13.3112   28.1233 H   0  0  0  0  0  0  0  0  0  0  0  0
  -16.8286   15.3918   29.0726 H   0  0  0  0  0  0  0  0  0  0  0  0
  -17.1125   13.7644   29.6554 H   0  0  0  0  0  0  0  0  0  0  0  0
  -16.4247   14.0498   27.9933 H   0  0  0  0  0  0  0  0  0  0  0  0
  -17.3695   17.3127   26.1410 H   0  0  0  0  0  0  0  0  0  0  0  0
  -17.0410   19.9692   26.9577 H   0  0  0  0  0  0  0  0  0  0  0  0
  -17.1429   19.4920   25.3447 H   0  0  0  0  0  0  0  0  0  0  0  0
  -18.3216   20.7635   25.8826 H   0  0  0  0  0  0  0  0  0  0  0  0
  -23.2720   16.4053   28.4692 H   0  0  0  0  0  0  0  0  0  0  0  0
  1  2  1  0  0  0  0
  1 16  1  0  0  0  0
  1 17  1  0  0  0  0
  1 18  1  0  0  0  0
  2  3  1  0  0  0  0
  2 19  1  0  0  0  0
  2 20  1  0  0  0  0
  3  4  1  0  0  0  0
  3  6  1  0  0  0  0
  4  5  1  0  0  0  0
  4 21  1  0  0  0  0
  4 22  1  0  0  0  0
  5 23  1  0  0  0  0
  5 24  1  0  0  0  0
  5 25  1  0  0  0  0
  6  7  2  0  0  0  0
  6 15  1  0  0  0  0
  7  8  1  0  0  0  0
  7 26  1  0  0  0  0
  8  9  1  0  0  0  0
  8 10  2  0  0  0  0
  9 27  1  0  0  0  0
  9 28  1  0  0  0  0
  9 29  1  0  0  0  0
 10 11  1  0  0  0  0
 11 12  2  0  0  0  0
 11 15  1  0  0  0  0
 12 13  1  0  0  0  0
 13 14  2  0  0  0  0
 13 30  1  0  0  0  0
 14 15  1  0  0  0  0
M  END
$$$$
