MD_2_clus2
  MOE2019           3D

 32 33  0  0  0  0  0  0  0  0999 V2000
  -17.0198   11.3744   23.2745 C   0  0  0  0  0  0  0  0  0  0  0  0
  -17.1781   12.7241   23.9196 C   0  0  0  0  0  0  0  0  0  0  0  0
  -18.4959   12.9343   24.4796 N   0  0  0  0  0  0  0  0  0  0  0  0
  -18.7477   13.6290   25.6536 C   0  0  0  0  0  0  0  0  0  0  0  0
  -19.9867   13.1997   26.1142 C   0  0  0  0  0  0  0  0  0  0  0  0
  -20.3865   13.6076   27.3493 N   0  0  0  0  0  0  0  0  0  0  0  0
  -21.6235   13.4340   27.9253 C   0  0  0  0  0  0  0  0  0  0  0  0
  -22.4985   12.7941   27.3343 O   0  0  0  0  0  0  0  0  0  0  0  0
  -21.7640   13.9737   29.3462 C   0  0  0  0  0  0  0  0  0  0  0  0
  -21.0754   12.9843   30.3477 C   0  0  0  0  0  0  0  0  0  0  0  0
  -22.0016   12.9017   31.6005 C   0  0  0  0  0  0  0  0  0  0  0  0
  -23.1516   13.9672   31.3497 C   0  0  0  0  0  0  0  0  0  0  0  0
  -23.1503   14.2549   29.8517 C   0  0  0  0  0  0  0  0  0  0  0  0
  -20.5306   12.3427   25.0967 C   0  0  0  0  0  0  0  0  0  0  0  0
  -19.5782   12.1867   24.1629 N   0  0  0  0  0  0  0  0  0  0  0  0
  -17.4148   10.6021   23.9389 H   0  0  0  0  0  0  0  0  0  0  0  0
  -17.4568   11.1601   22.2974 H   0  0  0  0  0  0  0  0  0  0  0  0
  -15.9557   11.1309   23.2420 H   0  0  0  0  0  0  0  0  0  0  0  0
  -16.4313   12.8010   24.7150 H   0  0  0  0  0  0  0  0  0  0  0  0
  -16.8455   13.4611   23.1844 H   0  0  0  0  0  0  0  0  0  0  0  0
  -18.0641   14.2454   26.2235 H   0  0  0  0  0  0  0  0  0  0  0  0
  -19.6826   14.0707   27.9052 H   0  0  0  0  0  0  0  0  0  0  0  0
  -21.2080   14.9109   29.4192 H   0  0  0  0  0  0  0  0  0  0  0  0
  -20.9788   11.9909   29.9038 H   0  0  0  0  0  0  0  0  0  0  0  0
  -20.0682   13.3173   30.6083 H   0  0  0  0  0  0  0  0  0  0  0  0
  -22.3691   11.8765   31.6789 H   0  0  0  0  0  0  0  0  0  0  0  0
  -21.4362   13.1980   32.4872 H   0  0  0  0  0  0  0  0  0  0  0  0
  -24.0967   13.6361   31.7867 H   0  0  0  0  0  0  0  0  0  0  0  0
  -22.9503   14.9028   31.8751 H   0  0  0  0  0  0  0  0  0  0  0  0
  -23.2830   15.3064   29.5902 H   0  0  0  0  0  0  0  0  0  0  0  0
  -23.9037   13.6404   29.3546 H   0  0  0  0  0  0  0  0  0  0  0  0
  -21.4648   11.8305   24.8998 H   0  0  0  0  0  0  0  0  0  0  0  0
  1  2  1  0  0  0  0
  1 16  1  0  0  0  0
  1 17  1  0  0  0  0
  1 18  1  0  0  0  0
  2  3  1  0  0  0  0
  2 19  1  0  0  0  0
  2 20  1  0  0  0  0
  3  4  1  0  0  0  0
  3 15  1  0  0  0  0
  4  5  2  0  0  0  0
  4 21  1  0  0  0  0
  5  6  1  0  0  0  0
  5 14  1  0  0  0  0
  6  7  1  0  0  0  0
  6 22  1  0  0  0  0
  7  8  2  0  0  0  0
  7  9  1  0  0  0  0
  9 10  1  0  0  0  0
  9 13  1  0  0  0  0
  9 23  1  0  0  0  0
 10 11  1  0  0  0  0
 10 24  1  0  0  0  0
 10 25  1  0  0  0  0
 11 12  1  0  0  0  0
 11 26  1  0  0  0  0
 11 27  1  0  0  0  0
 12 13  1  0  0  0  0
 12 28  1  0  0  0  0
 12 29  1  0  0  0  0
 13 30  1  0  0  0  0
 13 31  1  0  0  0  0
 14 15  2  0  0  0  0
 14 32  1  0  0  0  0
M  END
$$$$
