MD_1_clus4
  MOE2019           3D

 24 25  0  0  0  0  0  0  0  0999 V2000
  -19.0664   17.0783   27.5867 C   0  0  0  0  0  0  0  0  0  0  0  0
  -17.7979   15.9259   27.6870 S   0  0  0  0  0  0  0  0  0  0  0  0
  -17.4981   15.6158   26.3283 O   0  0  0  0  0  0  0  0  0  0  0  0
  -16.8197   16.4938   28.5259 O   0  0  0  0  0  0  0  0  0  0  0  0
  -18.4734   14.5561   28.4607 C   0  0  0  0  0  0  0  0  0  0  0  0
  -19.5866   13.9153   27.6556 C   0  0  0  0  0  0  0  0  0  0  0  0
  -19.4393   13.1386   26.5222 N   0  0  0  0  0  0  0  0  0  0  0  0
  -20.6352   12.5999   26.3423 C   0  0  0  0  0  0  0  0  0  0  0  0
  -21.0406   11.7309   25.3169 C   0  0  0  0  0  0  0  0  0  0  0  0
  -22.3616   11.2502   25.3377 C   0  0  0  0  0  0  0  0  0  0  0  0
  -23.2167   11.6418   26.3967 C   0  0  0  0  0  0  0  0  0  0  0  0
  -22.8056   12.5673   27.3691 C   0  0  0  0  0  0  0  0  0  0  0  0
  -21.4711   12.9506   27.3625 C   0  0  0  0  0  0  0  0  0  0  0  0
  -20.8162   13.7437   28.2226 N   0  0  0  0  0  0  0  0  0  0  0  0
  -18.8267   17.7814   28.3886 H   0  0  0  0  0  0  0  0  0  0  0  0
  -18.9913   17.6496   26.6586 H   0  0  0  0  0  0  0  0  0  0  0  0
  -20.0654   16.6671   27.7516 H   0  0  0  0  0  0  0  0  0  0  0  0
  -17.5629   13.9578   28.5465 H   0  0  0  0  0  0  0  0  0  0  0  0
  -18.8826   14.9291   29.4029 H   0  0  0  0  0  0  0  0  0  0  0  0
  -18.6477   12.8432   25.9672 H   0  0  0  0  0  0  0  0  0  0  0  0
  -20.4283   11.5140   24.4457 H   0  0  0  0  0  0  0  0  0  0  0  0
  -22.7536   10.6704   24.5058 H   0  0  0  0  0  0  0  0  0  0  0  0
  -24.2718   11.4090   26.2747 H   0  0  0  0  0  0  0  0  0  0  0  0
  -23.5725   12.8759   28.0744 H   0  0  0  0  0  0  0  0  0  0  0  0
  1  2  1  0  0  0  0
  1 15  1  0  0  0  0
  1 16  1  0  0  0  0
  1 17  1  0  0  0  0
  2  3  2  0  0  0  0
  2  4  2  0  0  0  0
  2  5  1  0  0  0  0
  5  6  1  0  0  0  0
  5 18  1  0  0  0  0
  5 19  1  0  0  0  0
  6  7  1  0  0  0  0
  6 14  2  0  0  0  0
  7  8  1  0  0  0  0
  7 20  1  0  0  0  0
  8  9  1  0  0  0  0
  8 13  2  0  0  0  0
  9 10  2  0  0  0  0
  9 21  1  0  0  0  0
 10 11  1  0  0  0  0
 10 22  1  0  0  0  0
 11 12  2  0  0  0  0
 11 23  1  0  0  0  0
 12 13  1  0  0  0  0
 12 24  1  0  0  0  0
 13 14  1  0  0  0  0
M  END
$$$$
