MD_3_clus0
  MOE2019           3D

 16 16  0  0  0  0  0  0  0  0999 V2000
  -14.4763   14.2574   22.6214 Br  0  0  0  0  0  0  0  0  0  0  0  0
  -16.0202   13.1825   23.2532 C   0  0  0  0  0  0  0  0  0  0  0  0
  -16.9723   13.6815   24.1147 C   0  0  0  0  0  0  0  0  0  0  0  0
  -17.9040   12.6705   24.1540 N   0  0  0  0  0  0  0  0  0  0  0  0
  -19.0278   12.5068   25.0662 C   0  0  0  0  0  0  0  0  0  0  0  0
  -18.9985   13.3554   26.2641 C   0  0  0  0  0  0  0  0  0  0  0  0
  -20.3248   13.3330   26.7593 O   0  0  0  0  0  0  0  0  0  0  0  0
  -17.5259   11.5290   23.4766 N   0  0  0  0  0  0  0  0  0  0  0  0
  -16.3307   11.8417   22.9797 C   0  0  0  0  0  0  0  0  0  0  0  0
  -17.0769   14.6436   24.6018 H   0  0  0  0  0  0  0  0  0  0  0  0
  -19.9723   12.6986   24.5502 H   0  0  0  0  0  0  0  0  0  0  0  0
  -19.0740   11.4818   25.4422 H   0  0  0  0  0  0  0  0  0  0  0  0
  -18.1820   13.0679   26.9327 H   0  0  0  0  0  0  0  0  0  0  0  0
  -18.8177   14.3838   25.9411 H   0  0  0  0  0  0  0  0  0  0  0  0
  -20.4374   13.9895   27.4695 H   0  0  0  0  0  0  0  0  0  0  0  0
  -15.8145   11.1570   22.3166 H   0  0  0  0  0  0  0  0  0  0  0  0
  1  2  1  0  0  0  0
  2  3  2  0  0  0  0
  2  9  1  0  0  0  0
  3  4  1  0  0  0  0
  3 10  1  0  0  0  0
  4  5  1  0  0  0  0
  4  8  1  0  0  0  0
  5  6  1  0  0  0  0
  5 11  1  0  0  0  0
  5 12  1  0  0  0  0
  6  7  1  0  0  0  0
  6 13  1  0  0  0  0
  6 14  1  0  0  0  0
  7 15  1  0  0  0  0
  8  9  2  0  0  0  0
  9 16  1  0  0  0  0
M  END
$$$$
