MD_1_clus0
  MOE2019           3D

 26 27  0  0  0  0  0  0  0  0999 V2000
  -16.8807   12.2078   22.3987 C   0  0  0  0  0  0  0  0  0  0  0  0
  -17.5318   12.5269   23.7330 C   0  0  0  0  0  0  0  0  0  0  0  0
  -16.8599   13.3372   24.6959 C   0  0  0  0  0  0  0  0  0  0  0  0
  -17.6426   13.3516   25.7642 C   0  0  0  0  0  0  0  0  0  0  0  0
  -17.4272   13.7676   27.1860 C   0  0  0  0  0  0  0  0  0  0  0  0
  -17.6224   15.1840   27.4270 N   0  0  0  0  0  0  0  0  0  0  0  0
  -16.4799   15.9119   27.1611 N   0  0  0  0  0  0  0  0  0  0  0  0
  -16.5615   17.2323   27.0673 C   0  0  0  0  0  0  0  0  0  0  0  0
  -15.3771   18.1726   27.0855 C   0  0  0  0  0  0  0  0  0  0  0  0
  -17.7652   17.9556   27.4078 C   0  0  0  0  0  0  0  0  0  0  0  0
  -18.8417   17.1622   27.6790 C   0  0  0  0  0  0  0  0  0  0  0  0
  -18.8813   15.7261   27.6364 C   0  0  0  0  0  0  0  0  0  0  0  0
  -19.8984   15.0683   27.7369 O   0  0  0  0  0  0  0  0  0  0  0  0
  -18.7382   12.5660   25.5127 O   0  0  0  0  0  0  0  0  0  0  0  0
  -18.6213   12.0023   24.2456 N   0  0  0  0  0  0  0  0  0  0  0  0
  -16.8391   11.1532   22.1200 H   0  0  0  0  0  0  0  0  0  0  0  0
  -17.4151   12.7821   21.6390 H   0  0  0  0  0  0  0  0  0  0  0  0
  -15.8513   12.5716   22.3966 H   0  0  0  0  0  0  0  0  0  0  0  0
  -15.8691   13.7744   24.6315 H   0  0  0  0  0  0  0  0  0  0  0  0
  -18.0186   13.1244   27.8425 H   0  0  0  0  0  0  0  0  0  0  0  0
  -16.4163   13.6448   27.5840 H   0  0  0  0  0  0  0  0  0  0  0  0
  -15.1823   18.7302   28.0033 H   0  0  0  0  0  0  0  0  0  0  0  0
  -14.4729   17.5973   26.8786 H   0  0  0  0  0  0  0  0  0  0  0  0
  -15.5651   18.8227   26.2282 H   0  0  0  0  0  0  0  0  0  0  0  0
  -17.7767   19.0229   27.6009 H   0  0  0  0  0  0  0  0  0  0  0  0
  -19.8095   17.6329   27.8159 H   0  0  0  0  0  0  0  0  0  0  0  0
  1  2  1  0  0  0  0
  1 16  1  0  0  0  0
  1 17  1  0  0  0  0
  1 18  1  0  0  0  0
  2  3  1  0  0  0  0
  2 15  2  0  0  0  0
  3  4  2  0  0  0  0
  3 19  1  0  0  0  0
  4  5  1  0  0  0  0
  4 14  1  0  0  0  0
  5  6  1  0  0  0  0
  5 20  1  0  0  0  0
  5 21  1  0  0  0  0
  6  7  1  0  0  0  0
  6 12  1  0  0  0  0
  7  8  2  0  0  0  0
  8  9  1  0  0  0  0
  8 10  1  0  0  0  0
  9 22  1  0  0  0  0
  9 23  1  0  0  0  0
  9 24  1  0  0  0  0
 10 11  2  0  0  0  0
 10 25  1  0  0  0  0
 11 12  1  0  0  0  0
 11 26  1  0  0  0  0
 12 13  2  0  0  0  0
 14 15  1  0  0  0  0
M  END
$$$$
