MD_1_clus0
  MOE2019           3D

 19 19  0  0  0  0  0  0  0  0999 V2000
  -18.6357   11.0140   24.2502 Br  0  0  0  0  0  0  0  0  0  0  0  0
  -18.3132   12.5919   25.4097 C   0  0  0  0  0  0  0  0  0  0  0  0
  -18.9518   12.7910   26.6073 C   0  0  0  0  0  0  0  0  0  0  0  0
  -18.4579   13.9128   27.1885 N   0  3  0  0  0  0  0  0  0  0  0  0
  -18.8226   14.4765   28.5015 C   0  0  0  0  0  0  0  0  0  0  0  0
  -20.3156   14.5558   28.8063 C   0  0  0  0  0  0  0  0  0  0  0  0
  -20.8802   15.7874   28.2477 O   0  0  0  0  0  0  0  0  0  0  0  0
  -22.2825   15.9747   28.5858 C   0  0  0  0  0  0  0  0  0  0  0  0
  -17.6475   14.5577   26.3555 N   0  5  0  0  0  0  0  0  0  0  0  0
  -17.3750   13.6804   25.3893 C   0  0  0  0  0  0  0  0  0  0  0  0
  -19.7504   12.2470   27.0945 H   0  0  0  0  0  0  0  0  0  0  0  0
  -18.4162   13.8913   29.3309 H   0  0  0  0  0  0  0  0  0  0  0  0
  -18.4653   15.4971   28.6654 H   0  0  0  0  0  0  0  0  0  0  0  0
  -20.8186   13.7145   28.3224 H   0  0  0  0  0  0  0  0  0  0  0  0
  -20.4749   14.5267   29.8879 H   0  0  0  0  0  0  0  0  0  0  0  0
  -22.7582   16.8314   28.1029 H   0  0  0  0  0  0  0  0  0  0  0  0
  -22.7312   15.0122   28.3289 H   0  0  0  0  0  0  0  0  0  0  0  0
  -22.3602   16.1787   29.6570 H   0  0  0  0  0  0  0  0  0  0  0  0
  -16.5571   13.7725   24.6852 H   0  0  0  0  0  0  0  0  0  0  0  0
  1  2  1  0  0  0  0
  2  3  1  0  0  0  0
  2 10  2  0  0  0  0
  3  4  2  0  0  0  0
  3 11  1  0  0  0  0
  4  5  1  0  0  0  0
  4  9  1  0  0  0  0
  5  6  1  0  0  0  0
  5 12  1  0  0  0  0
  5 13  1  0  0  0  0
  6  7  1  0  0  0  0
  6 14  1  0  0  0  0
  6 15  1  0  0  0  0
  7  8  1  0  0  0  0
  8 16  1  0  0  0  0
  8 17  1  0  0  0  0
  8 18  1  0  0  0  0
  9 10  1  0  0  0  0
 10 19  1  0  0  0  0
M  CHG  1   4   1
M  CHG  1   9  -1
M  END
$$$$
