MD_1_clus2
  MOE2019           3D

 25 27  0  0  0  0  0  0  0  0999 V2000
  -23.1191   12.5418   32.5692 O   0  0  0  0  0  0  0  0  0  0  0  0
  -22.8233   12.2010   31.4315 C   0  0  0  0  0  0  0  0  0  0  0  0
  -22.1862   10.9999   31.2313 N   0  0  0  0  0  0  0  0  0  0  0  0
  -21.9207   10.0291   32.2939 C   0  0  0  0  0  0  0  0  0  0  0  0
  -20.5131    9.4913   32.5079 C   0  0  0  0  0  0  0  0  0  0  0  0
  -21.5033    8.6694   31.6884 C   0  0  0  0  0  0  0  0  0  0  0  0
  -23.0308   13.0381   30.2400 C   0  0  0  0  0  0  0  0  0  0  0  0
  -22.4823   12.9293   28.9483 C   0  0  0  0  0  0  0  0  0  0  0  0
  -22.9158   13.8558   28.1489 N   0  0  0  0  0  0  0  0  0  0  0  0
  -23.7326   14.6541   28.9020 N   0  0  0  0  0  0  0  0  0  0  0  0
  -24.5043   15.6843   28.4326 C   0  0  0  0  0  0  0  0  0  0  0  0
  -25.2163   16.2630   29.4533 C   0  0  0  0  0  0  0  0  0  0  0  0
  -25.1699   15.7345   30.8134 C   0  0  0  0  0  0  0  0  0  0  0  0
  -24.5190   14.5735   31.2328 N   0  0  0  0  0  0  0  0  0  0  0  0
  -23.7588   14.1483   30.1825 C   0  0  0  0  0  0  0  0  0  0  0  0
  -21.9358   10.7063   30.2993 H   0  0  0  0  0  0  0  0  0  0  0  0
  -22.5805   10.0660   33.1568 H   0  0  0  0  0  0  0  0  0  0  0  0
  -19.7357   10.0000   31.9463 H   0  0  0  0  0  0  0  0  0  0  0  0
  -20.1930    9.1104   33.4733 H   0  0  0  0  0  0  0  0  0  0  0  0
  -21.8771    7.7499   32.1280 H   0  0  0  0  0  0  0  0  0  0  0  0
  -21.4442    8.7202   30.6054 H   0  0  0  0  0  0  0  0  0  0  0  0
  -21.7190   12.2308   28.6277 H   0  0  0  0  0  0  0  0  0  0  0  0
  -24.5500   15.9581   27.3858 H   0  0  0  0  0  0  0  0  0  0  0  0
  -25.8583   17.1121   29.2416 H   0  0  0  0  0  0  0  0  0  0  0  0
  -25.7403   16.2434   31.5800 H   0  0  0  0  0  0  0  0  0  0  0  0
  1  2  2  0  0  0  0
  2  3  1  0  0  0  0
  2  7  1  0  0  0  0
  3  4  1  0  0  0  0
  3 16  1  0  0  0  0
  4  5  1  0  0  0  0
  4  6  1  0  0  0  0
  4 17  1  0  0  0  0
  5  6  1  0  0  0  0
  5 18  1  0  0  0  0
  5 19  1  0  0  0  0
  6 20  1  0  0  0  0
  6 21  1  0  0  0  0
  7  8  1  0  0  0  0
  7 15  2  0  0  0  0
  8  9  2  0  0  0  0
  8 22  1  0  0  0  0
  9 10  1  0  0  0  0
 10 11  1  0  0  0  0
 10 15  1  0  0  0  0
 11 12  2  0  0  0  0
 11 23  1  0  0  0  0
 12 13  1  0  0  0  0
 12 24  1  0  0  0  0
 13 14  2  0  0  0  0
 13 25  1  0  0  0  0
 14 15  1  0  0  0  0
M  END
$$$$
