MD_3_clus2
  MOE2019           3D

 19 19  0  0  0  0  0  0  0  0999 V2000
  -23.9156   10.7732   35.2581 C   0  0  0  0  0  0  0  0  0  0  0  0
  -22.6648   10.6636   34.5448 N   0  0  0  0  0  0  0  0  0  0  0  0
  -21.6449   11.6780   34.8447 C   0  0  0  0  0  0  0  0  0  0  0  0
  -22.6628    9.7751   33.4752 C   0  0  0  0  0  0  0  0  0  0  0  0
  -23.6011    9.1414   33.1643 O   0  0  0  0  0  0  0  0  0  0  0  0
  -21.4152    9.5820   32.6954 C   0  0  0  0  0  0  0  0  0  0  0  0
  -20.1131    9.8624   33.1083 C   0  0  0  0  0  0  0  0  0  0  0  0
  -19.3211    9.5474   31.9726 N   0  0  0  0  0  0  0  0  0  0  0  0
  -20.1986    9.0323   31.0669 N   0  0  0  0  0  0  0  0  0  0  0  0
  -21.4932    8.9678   31.5265 C   0  0  0  0  0  0  0  0  0  0  0  0
  -23.8684   11.5225   36.0526 H   0  0  0  0  0  0  0  0  0  0  0  0
  -24.7692   11.0749   34.6442 H   0  0  0  0  0  0  0  0  0  0  0  0
  -24.1964    9.8182   35.7099 H   0  0  0  0  0  0  0  0  0  0  0  0
  -21.1624   12.0618   33.9427 H   0  0  0  0  0  0  0  0  0  0  0  0
  -20.9486   11.3529   35.6213 H   0  0  0  0  0  0  0  0  0  0  0  0
  -22.2302   12.4890   35.2862 H   0  0  0  0  0  0  0  0  0  0  0  0
  -19.6736   10.2653   34.0130 H   0  0  0  0  0  0  0  0  0  0  0  0
  -19.9544    8.7732   30.1205 H   0  0  0  0  0  0  0  0  0  0  0  0
  -22.3437    8.5366   31.0122 H   0  0  0  0  0  0  0  0  0  0  0  0
  1  2  1  0  0  0  0
  1 11  1  0  0  0  0
  1 12  1  0  0  0  0
  1 13  1  0  0  0  0
  2  3  1  0  0  0  0
  2  4  1  0  0  0  0
  3 14  1  0  0  0  0
  3 15  1  0  0  0  0
  3 16  1  0  0  0  0
  4  5  2  0  0  0  0
  4  6  1  0  0  0  0
  6  7  1  0  0  0  0
  6 10  2  0  0  0  0
  7  8  2  0  0  0  0
  7 17  1  0  0  0  0
  8  9  1  0  0  0  0
  9 10  1  0  0  0  0
  9 18  1  0  0  0  0
 10 19  1  0  0  0  0
M  END
$$$$
