MD_2_clus1
  MOE2019           3D

 23 23  0  0  0  0  0  0  0  0999 V2000
  -16.5078   12.9969   27.7324 C   0  0  0  0  0  0  0  0  0  0  0  0
  -17.3490   13.2447   26.5982 N   0  0  0  0  0  0  0  0  0  0  0  0
  -18.3678   14.0929   26.7157 C   0  0  0  0  0  0  0  0  0  0  0  0
  -18.4307   15.0100   27.6958 C   0  0  0  0  0  0  0  0  0  0  0  0
  -19.5332   15.8893   27.7336 C   0  0  0  0  0  0  0  0  0  0  0  0
  -20.4348   15.9890   26.6833 C   0  0  0  0  0  0  0  0  0  0  0  0
  -20.3636   15.0967   25.6369 C   0  0  0  0  0  0  0  0  0  0  0  0
  -19.2885   14.1535   25.6431 C   0  0  0  0  0  0  0  0  0  0  0  0
  -19.0200   13.2059   24.1150 S   0  0  0  0  0  0  0  0  0  0  0  0
  -18.2978   11.9425   24.4094 O   0  0  0  0  0  0  0  0  0  0  0  0
  -20.2535   13.1270   23.3498 O   0  0  0  0  0  0  0  0  0  0  0  0
  -17.8859   14.3407   23.3428 C   0  0  0  0  0  0  0  0  0  0  0  0
  -15.7997   12.1711   27.6264 H   0  0  0  0  0  0  0  0  0  0  0  0
  -15.9569   13.9254   27.9031 H   0  0  0  0  0  0  0  0  0  0  0  0
  -17.0905   12.8162   28.6387 H   0  0  0  0  0  0  0  0  0  0  0  0
  -17.5164   12.4531   25.9861 H   0  0  0  0  0  0  0  0  0  0  0  0
  -17.8292   14.9235   28.5968 H   0  0  0  0  0  0  0  0  0  0  0  0
  -19.6893   16.5736   28.5639 H   0  0  0  0  0  0  0  0  0  0  0  0
  -21.1806   16.7795   26.7112 H   0  0  0  0  0  0  0  0  0  0  0  0
  -20.9258   15.2585   24.7210 H   0  0  0  0  0  0  0  0  0  0  0  0
  -17.3449   13.7208   22.6220 H   0  0  0  0  0  0  0  0  0  0  0  0
  -18.4699   15.1223   22.8483 H   0  0  0  0  0  0  0  0  0  0  0  0
  -17.2114   14.6111   24.1594 H   0  0  0  0  0  0  0  0  0  0  0  0
  1  2  1  0  0  0  0
  1 13  1  0  0  0  0
  1 14  1  0  0  0  0
  1 15  1  0  0  0  0
  2  3  1  0  0  0  0
  2 16  1  0  0  0  0
  3  4  1  0  0  0  0
  3  8  2  0  0  0  0
  4  5  2  0  0  0  0
  4 17  1  0  0  0  0
  5  6  1  0  0  0  0
  5 18  1  0  0  0  0
  6  7  2  0  0  0  0
  6 19  1  0  0  0  0
  7  8  1  0  0  0  0
  7 20  1  0  0  0  0
  8  9  1  0  0  0  0
  9 10  2  0  0  0  0
  9 11  2  0  0  0  0
  9 12  1  0  0  0  0
 12 21  1  0  0  0  0
 12 22  1  0  0  0  0
 12 23  1  0  0  0  0
M  END
$$$$
