MD_2_clus3
  MOE2019           3D

 30 31  0  0  0  0  0  0  0  0999 V2000
  -19.0228   18.5264   26.6516 N   0  0  0  0  0  0  0  0  0  0  0  0
  -19.8710   17.5948   26.9588 C   0  0  0  0  0  0  0  0  0  0  0  0
  -21.0490   17.8863   26.8901 O   0  0  0  0  0  0  0  0  0  0  0  0
  -19.3393   16.4440   27.1196 N   0  0  0  0  0  0  0  0  0  0  0  0
  -20.2523   15.2875   27.5319 C   0  0  0  0  0  0  0  0  0  0  0  0
  -19.8927   13.9044   26.8395 C   0  0  0  0  0  0  0  0  0  0  0  0
  -18.4891   13.6902   26.6148 N   0  0  0  0  0  0  0  0  0  0  0  0
  -17.5521   14.6061   27.2735 C   0  0  0  0  0  0  0  0  0  0  0  0
  -17.8698   16.0690   26.8817 C   0  0  0  0  0  0  0  0  0  0  0  0
  -18.0999   12.8258   25.5634 C   0  0  0  0  0  0  0  0  0  0  0  0
  -18.5560   11.5419   25.5050 C   0  0  0  0  0  0  0  0  0  0  0  0
  -18.2147   10.6628   24.4571 C   0  0  0  0  0  0  0  0  0  0  0  0
  -17.5262   11.1142   23.3475 C   0  0  0  0  0  0  0  0  0  0  0  0
  -17.2897   10.3075   22.2606 F   0  0  0  0  0  0  0  0  0  0  0  0
  -17.0912   12.4231   23.3587 C   0  0  0  0  0  0  0  0  0  0  0  0
  -17.3428   13.2421   24.4238 C   0  0  0  0  0  0  0  0  0  0  0  0
  -19.4252   19.2514   26.0778 H   0  0  0  0  0  0  0  0  0  0  0  0
  -18.0407   18.3460   26.8012 H   0  0  0  0  0  0  0  0  0  0  0  0
  -20.2266   15.1530   28.6157 H   0  0  0  0  0  0  0  0  0  0  0  0
  -21.2638   15.4681   27.1611 H   0  0  0  0  0  0  0  0  0  0  0  0
  -20.3716   13.1207   27.4317 H   0  0  0  0  0  0  0  0  0  0  0  0
  -20.3541   13.9189   25.8496 H   0  0  0  0  0  0  0  0  0  0  0  0
  -17.6442   14.5531   28.3620 H   0  0  0  0  0  0  0  0  0  0  0  0
  -16.5353   14.3209   26.9934 H   0  0  0  0  0  0  0  0  0  0  0  0
  -17.5359   16.1341   25.8436 H   0  0  0  0  0  0  0  0  0  0  0  0
  -17.2555   16.7564   27.4701 H   0  0  0  0  0  0  0  0  0  0  0  0
  -19.2165   11.2427   26.3151 H   0  0  0  0  0  0  0  0  0  0  0  0
  -18.5044    9.6171   24.5183 H   0  0  0  0  0  0  0  0  0  0  0  0
  -16.6554   12.8097   22.4415 H   0  0  0  0  0  0  0  0  0  0  0  0
  -17.0162   14.2789   24.4002 H   0  0  0  0  0  0  0  0  0  0  0  0
  1  2  1  0  0  0  0
  1 17  1  0  0  0  0
  1 18  1  0  0  0  0
  2  3  2  0  0  0  0
  2  4  1  0  0  0  0
  4  5  1  0  0  0  0
  4  9  1  0  0  0  0
  5  6  1  0  0  0  0
  5 19  1  0  0  0  0
  5 20  1  0  0  0  0
  6  7  1  0  0  0  0
  6 21  1  0  0  0  0
  6 22  1  0  0  0  0
  7  8  1  0  0  0  0
  7 10  1  0  0  0  0
  8  9  1  0  0  0  0
  8 23  1  0  0  0  0
  8 24  1  0  0  0  0
  9 25  1  0  0  0  0
  9 26  1  0  0  0  0
 10 11  1  0  0  0  0
 10 16  2  0  0  0  0
 11 12  2  0  0  0  0
 11 27  1  0  0  0  0
 12 13  1  0  0  0  0
 12 28  1  0  0  0  0
 13 14  1  0  0  0  0
 13 15  2  0  0  0  0
 15 16  1  0  0  0  0
 15 29  1  0  0  0  0
 16 30  1  0  0  0  0
M  END
$$$$
