MD_2_clus7
  MOE2019           3D

 27 28  0  0  0  0  0  0  0  0999 V2000
  -20.9689   11.5459   32.5928 C   0  0  0  0  0  0  0  0  0  0  0  0
  -19.4362   11.4245   32.6435 C   0  0  0  0  0  0  0  0  0  0  0  0
  -18.6975   11.3413   33.7248 N   0  0  0  0  0  0  0  0  0  0  0  0
  -17.3333   11.3686   33.4874 N   0  0  0  0  0  0  0  0  0  0  0  0
  -17.2192   11.2228   32.1763 C   0  0  0  0  0  0  0  0  0  0  0  0
  -18.5447   11.1440   31.6599 C   0  0  0  0  0  0  0  0  0  0  0  0
  -18.7719   11.1067   30.1241 C   0  0  0  0  0  0  0  0  0  0  0  0
  -17.6768   10.5224   29.3433 N   0  0  0  0  0  0  0  0  0  0  0  0
  -17.6031   10.7957   28.0060 C   0  0  0  0  0  0  0  0  0  0  0  0
  -17.3353   12.1059   27.5550 C   0  0  0  0  0  0  0  0  0  0  0  0
  -17.0025   12.3205   26.1737 C   0  0  0  0  0  0  0  0  0  0  0  0
  -17.1133   11.3450   25.2674 C   0  0  0  0  0  0  0  0  0  0  0  0
  -17.4103   10.0156   25.6918 C   0  0  0  0  0  0  0  0  0  0  0  0
  -17.6087    9.7649   27.0679 C   0  0  0  0  0  0  0  0  0  0  0  0
  -17.6928    8.4820   27.4281 F   0  0  0  0  0  0  0  0  0  0  0  0
  -21.4175   10.9130   31.8247 H   0  0  0  0  0  0  0  0  0  0  0  0
  -21.4298   11.2720   33.5445 H   0  0  0  0  0  0  0  0  0  0  0  0
  -21.3247   12.5673   32.4437 H   0  0  0  0  0  0  0  0  0  0  0  0
  -19.0550   11.3969   34.6696 H   0  0  0  0  0  0  0  0  0  0  0  0
  -16.2656   11.2854   31.6674 H   0  0  0  0  0  0  0  0  0  0  0  0
  -19.7488   10.6323   29.9987 H   0  0  0  0  0  0  0  0  0  0  0  0
  -18.9045   12.1274   29.7547 H   0  0  0  0  0  0  0  0  0  0  0  0
  -17.5830    9.5185   29.4575 H   0  0  0  0  0  0  0  0  0  0  0  0
  -17.2450   12.9148   28.2767 H   0  0  0  0  0  0  0  0  0  0  0  0
  -16.4877   13.2582   25.9804 H   0  0  0  0  0  0  0  0  0  0  0  0
  -16.7624   11.4816   24.2474 H   0  0  0  0  0  0  0  0  0  0  0  0
  -17.1575    9.3093   24.9049 H   0  0  0  0  0  0  0  0  0  0  0  0
  1  2  1  0  0  0  0
  1 16  1  0  0  0  0
  1 17  1  0  0  0  0
  1 18  1  0  0  0  0
  2  3  1  0  0  0  0
  2  6  2  0  0  0  0
  3  4  1  0  0  0  0
  3 19  1  0  0  0  0
  4  5  2  0  0  0  0
  5  6  1  0  0  0  0
  5 20  1  0  0  0  0
  6  7  1  0  0  0  0
  7  8  1  0  0  0  0
  7 21  1  0  0  0  0
  7 22  1  0  0  0  0
  8  9  1  0  0  0  0
  8 23  1  0  0  0  0
  9 10  1  0  0  0  0
  9 14  2  0  0  0  0
 10 11  2  0  0  0  0
 10 24  1  0  0  0  0
 11 12  1  0  0  0  0
 11 25  1  0  0  0  0
 12 13  2  0  0  0  0
 12 26  1  0  0  0  0
 13 14  1  0  0  0  0
 13 27  1  0  0  0  0
 14 15  1  0  0  0  0
M  END
$$$$
