MD_1_clus5
  MOE2019           3D

 19 19  0  0  0  0  0  0  0  0999 V2000
  -16.2636   13.2662   25.2813 O   0  0  0  0  0  0  0  0  0  0  0  0
  -15.2569   12.9975   25.8983 C   0  0  0  0  0  0  0  0  0  0  0  0
  -15.1047   13.1273   27.2678 N   0  0  0  0  0  0  0  0  0  0  0  0
  -16.2539   13.7453   28.0087 C   0  0  0  0  0  0  0  0  0  0  0  0
  -16.2342   15.2044   28.1129 C   0  0  0  0  0  0  0  0  0  0  0  0
  -15.0006   15.6906   28.6474 O   0  0  0  0  0  0  0  0  0  0  0  0
  -13.9540   12.9793   27.9463 C   0  0  0  0  0  0  0  0  0  0  0  0
  -12.8482   12.5743   27.2042 C   0  0  0  0  0  0  0  0  0  0  0  0
  -12.9005   12.3867   25.7901 C   0  0  0  0  0  0  0  0  0  0  0  0
  -11.2295   11.8195   24.8820 Br  0  0  0  0  0  0  0  0  0  0  0  0
  -14.1417   12.5622   25.1547 C   0  0  0  0  0  0  0  0  0  0  0  0
  -17.2012   13.5184   27.5133 H   0  0  0  0  0  0  0  0  0  0  0  0
  -16.3534   13.3100   29.0066 H   0  0  0  0  0  0  0  0  0  0  0  0
  -16.3977   15.6616   27.1341 H   0  0  0  0  0  0  0  0  0  0  0  0
  -17.0983   15.4932   28.7163 H   0  0  0  0  0  0  0  0  0  0  0  0
  -15.1485   16.6492   28.7357 H   0  0  0  0  0  0  0  0  0  0  0  0
  -13.9285   13.2551   28.9933 H   0  0  0  0  0  0  0  0  0  0  0  0
  -11.8781   12.5646   27.6904 H   0  0  0  0  0  0  0  0  0  0  0  0
  -14.3111   12.2186   24.1392 H   0  0  0  0  0  0  0  0  0  0  0  0
  1  2  2  0  0  0  0
  2  3  1  0  0  0  0
  2 11  1  0  0  0  0
  3  4  1  0  0  0  0
  3  7  1  0  0  0  0
  4  5  1  0  0  0  0
  4 12  1  0  0  0  0
  4 13  1  0  0  0  0
  5  6  1  0  0  0  0
  5 14  1  0  0  0  0
  5 15  1  0  0  0  0
  6 16  1  0  0  0  0
  7  8  2  0  0  0  0
  7 17  1  0  0  0  0
  8  9  1  0  0  0  0
  8 18  1  0  0  0  0
  9 10  1  0  0  0  0
  9 11  2  0  0  0  0
 11 19  1  0  0  0  0
M  END
$$$$
