MD_3_clus2
  MOE2019           3D

 28 29  0  0  0  0  0  0  0  0999 V2000
  -19.2308   15.1299   28.5006 C   0  0  0  0  0  0  0  0  0  0  0  0
  -20.1809   14.2602   27.6788 C   0  0  0  0  0  0  0  0  0  0  0  0
  -19.7387   13.4309   26.6897 N   0  0  0  0  0  0  0  0  0  0  0  0
  -20.9549   13.0049   26.2820 C   0  0  0  0  0  0  0  0  0  0  0  0
  -21.1735   12.0997   25.3011 C   0  0  0  0  0  0  0  0  0  0  0  0
  -22.5358   11.6096   25.0634 C   0  0  0  0  0  0  0  0  0  0  0  0
  -23.6160   12.0154   25.8655 C   0  0  0  0  0  0  0  0  0  0  0  0
  -23.3571   13.0168   26.8258 C   0  0  0  0  0  0  0  0  0  0  0  0
  -22.0206   13.3812   27.0467 C   0  0  0  0  0  0  0  0  0  0  0  0
  -21.4855   14.1681   27.9786 N   0  0  0  0  0  0  0  0  0  0  0  0
  -22.0467   14.3087   29.3280 C   0  0  0  0  0  0  0  0  0  0  0  0
  -21.8393   13.0464   30.2977 C   0  0  0  0  0  0  0  0  0  0  0  0
  -22.7755   11.9486   29.9199 C   0  0  0  0  0  0  0  0  0  0  0  0
  -23.9246   11.9076   30.2413 O   0  0  0  0  0  0  0  0  0  0  0  0
  -22.2738   11.0312   29.1828 N   0  0  0  0  0  0  0  0  0  0  0  0
  -19.7431   15.9627   28.9875 H   0  0  0  0  0  0  0  0  0  0  0  0
  -18.8246   14.5356   29.3220 H   0  0  0  0  0  0  0  0  0  0  0  0
  -18.4235   15.5207   27.8764 H   0  0  0  0  0  0  0  0  0  0  0  0
  -20.3197   11.8189   24.6890 H   0  0  0  0  0  0  0  0  0  0  0  0
  -22.7330   10.8727   24.2884 H   0  0  0  0  0  0  0  0  0  0  0  0
  -24.6266   11.6832   25.6429 H   0  0  0  0  0  0  0  0  0  0  0  0
  -24.2564   13.2249   27.3992 H   0  0  0  0  0  0  0  0  0  0  0  0
  -21.6197   15.1516   29.8762 H   0  0  0  0  0  0  0  0  0  0  0  0
  -23.1092   14.4768   29.1340 H   0  0  0  0  0  0  0  0  0  0  0  0
  -20.8024   12.7665   30.1024 H   0  0  0  0  0  0  0  0  0  0  0  0
  -21.9496   13.2214   31.3696 H   0  0  0  0  0  0  0  0  0  0  0  0
  -22.7829   10.1665   29.0806 H   0  0  0  0  0  0  0  0  0  0  0  0
  -21.3727   11.0548   28.7289 H   0  0  0  0  0  0  0  0  0  0  0  0
  1  2  1  0  0  0  0
  1 16  1  0  0  0  0
  1 17  1  0  0  0  0
  1 18  1  0  0  0  0
  2  3  2  0  0  0  0
  2 10  1  0  0  0  0
  3  4  1  0  0  0  0
  4  5  1  0  0  0  0
  4  9  2  0  0  0  0
  5  6  2  0  0  0  0
  5 19  1  0  0  0  0
  6  7  1  0  0  0  0
  6 20  1  0  0  0  0
  7  8  2  0  0  0  0
  7 21  1  0  0  0  0
  8  9  1  0  0  0  0
  8 22  1  0  0  0  0
  9 10  1  0  0  0  0
 10 11  1  0  0  0  0
 11 12  1  0  0  0  0
 11 23  1  0  0  0  0
 11 24  1  0  0  0  0
 12 13  1  0  0  0  0
 12 25  1  0  0  0  0
 12 26  1  0  0  0  0
 13 14  2  0  0  0  0
 13 15  1  0  0  0  0
 15 27  1  0  0  0  0
 15 28  1  0  0  0  0
M  END
$$$$
