MD_2_clus2
  MOE2019           3D

 26 28  0  0  0  0  0  0  0  0999 V2000
  -19.6912   11.7678   25.3835 O   0  0  0  0  0  0  0  0  0  0  0  0
  -20.2825   12.6357   25.9062 C   0  0  0  0  0  0  0  0  0  0  0  0
  -21.6078   12.5690   26.2641 N   0  0  0  0  0  0  0  0  0  0  0  0
  -22.5417   11.5341   25.8992 C   0  0  0  0  0  0  0  0  0  0  0  0
  -23.3644   11.8289   24.6632 C   0  0  0  0  0  0  0  0  0  0  0  0
  -23.8709   12.0850   26.0190 C   0  0  0  0  0  0  0  0  0  0  0  0
  -19.6888   13.9458   26.2436 C   0  0  0  0  0  0  0  0  0  0  0  0
  -20.3034   14.8613   27.0861 C   0  0  0  0  0  0  0  0  0  0  0  0
  -19.7066   16.0086   27.4748 C   0  0  0  0  0  0  0  0  0  0  0  0
  -18.4905   16.3170   26.9007 C   0  0  0  0  0  0  0  0  0  0  0  0
  -17.8834   17.5560   26.9096 O   0  0  0  0  0  0  0  0  0  0  0  0
  -16.5467   17.3083   26.3588 C   0  0  0  0  0  0  0  0  0  0  0  0
  -16.6740   15.9756   25.7089 O   0  0  0  0  0  0  0  0  0  0  0  0
  -17.8774   15.4882   26.0367 C   0  0  0  0  0  0  0  0  0  0  0  0
  -18.4954   14.2824   25.6601 C   0  0  0  0  0  0  0  0  0  0  0  0
  -21.9154   13.4186   26.7117 H   0  0  0  0  0  0  0  0  0  0  0  0
  -22.3542   10.5232   26.2532 H   0  0  0  0  0  0  0  0  0  0  0  0
  -22.9810   12.6204   24.0254 H   0  0  0  0  0  0  0  0  0  0  0  0
  -23.7123   10.9768   24.0871 H   0  0  0  0  0  0  0  0  0  0  0  0
  -24.6844   11.3830   26.1741 H   0  0  0  0  0  0  0  0  0  0  0  0
  -24.0172   13.1230   26.3039 H   0  0  0  0  0  0  0  0  0  0  0  0
  -21.2475   14.6849   27.5955 H   0  0  0  0  0  0  0  0  0  0  0  0
  -20.1714   16.8105   28.0441 H   0  0  0  0  0  0  0  0  0  0  0  0
  -16.0983   18.0826   25.7201 H   0  0  0  0  0  0  0  0  0  0  0  0
  -15.9005   17.1982   27.2427 H   0  0  0  0  0  0  0  0  0  0  0  0
  -18.0302   13.6060   24.9482 H   0  0  0  0  0  0  0  0  0  0  0  0
  1  2  2  0  0  0  0
  2  3  1  0  0  0  0
  2  7  1  0  0  0  0
  3  4  1  0  0  0  0
  3 16  1  0  0  0  0
  4  5  1  0  0  0  0
  4  6  1  0  0  0  0
  4 17  1  0  0  0  0
  5  6  1  0  0  0  0
  5 18  1  0  0  0  0
  5 19  1  0  0  0  0
  6 20  1  0  0  0  0
  6 21  1  0  0  0  0
  7  8  1  0  0  0  0
  7 15  2  0  0  0  0
  8  9  2  0  0  0  0
  8 22  1  0  0  0  0
  9 10  1  0  0  0  0
  9 23  1  0  0  0  0
 10 11  1  0  0  0  0
 10 14  2  0  0  0  0
 11 12  1  0  0  0  0
 12 13  1  0  0  0  0
 12 24  1  0  0  0  0
 12 25  1  0  0  0  0
 13 14  1  0  0  0  0
 14 15  1  0  0  0  0
 15 26  1  0  0  0  0
M  END
$$$$
