MD_2_clus1
  MOE2019           3D

 29 30  0  0  0  0  0  0  0  0999 V2000
  -23.4136   12.7983   29.4856 C   0  0  0  0  0  0  0  0  0  0  0  0
  -22.0183   13.1664   29.2849 N   0  0  0  0  0  0  0  0  0  0  0  0
  -21.5437   14.3104   28.7223 C   0  0  0  0  0  0  0  0  0  0  0  0
  -22.3010   15.2492   28.5832 O   0  0  0  0  0  0  0  0  0  0  0  0
  -20.0940   14.3346   28.5509 C   0  0  0  0  0  0  0  0  0  0  0  0
  -19.3918   14.6833   29.8869 C   0  0  0  0  0  0  0  0  0  0  0  0
  -19.6603   13.7702   31.0436 C   0  0  0  0  0  0  0  0  0  0  0  0
  -18.8717   12.6308   31.0650 C   0  0  0  0  0  0  0  0  0  0  0  0
  -19.0900   11.6913   32.0119 C   0  0  0  0  0  0  0  0  0  0  0  0
  -20.1564   11.8661   32.9240 C   0  0  0  0  0  0  0  0  0  0  0  0
  -20.8916   13.0500   32.9828 C   0  0  0  0  0  0  0  0  0  0  0  0
  -20.6765   14.0007   31.9341 C   0  0  0  0  0  0  0  0  0  0  0  0
  -21.4924   15.0828   31.8410 F   0  0  0  0  0  0  0  0  0  0  0  0
  -19.4824   13.4055   27.5629 C   0  0  0  0  0  0  0  0  0  0  0  0
  -19.4528   14.8640   27.2814 C   0  0  0  0  0  0  0  0  0  0  0  0
  -23.6317   13.1092   30.5111 H   0  0  0  0  0  0  0  0  0  0  0  0
  -24.1404   13.3650   28.8973 H   0  0  0  0  0  0  0  0  0  0  0  0
  -23.3841   11.7119   29.3717 H   0  0  0  0  0  0  0  0  0  0  0  0
  -21.3688   12.4922   29.6609 H   0  0  0  0  0  0  0  0  0  0  0  0
  -18.3123   14.8377   29.8210 H   0  0  0  0  0  0  0  0  0  0  0  0
  -19.7775   15.6692   30.1576 H   0  0  0  0  0  0  0  0  0  0  0  0
  -17.9743   12.5109   30.4628 H   0  0  0  0  0  0  0  0  0  0  0  0
  -18.5177   10.7695   32.0739 H   0  0  0  0  0  0  0  0  0  0  0  0
  -20.3532   11.1304   33.6991 H   0  0  0  0  0  0  0  0  0  0  0  0
  -21.6853   13.1556   33.7187 H   0  0  0  0  0  0  0  0  0  0  0  0
  -18.6592   12.8428   27.9931 H   0  0  0  0  0  0  0  0  0  0  0  0
  -20.0806   12.7545   26.9327 H   0  0  0  0  0  0  0  0  0  0  0  0
  -20.1510   15.2432   26.5414 H   0  0  0  0  0  0  0  0  0  0  0  0
  -18.4645   15.3070   27.3584 H   0  0  0  0  0  0  0  0  0  0  0  0
  1  2  1  0  0  0  0
  1 16  1  0  0  0  0
  1 17  1  0  0  0  0
  1 18  1  0  0  0  0
  2  3  1  0  0  0  0
  2 19  1  0  0  0  0
  3  4  2  0  0  0  0
  3  5  1  0  0  0  0
  5  6  1  0  0  0  0
  5 14  1  0  0  0  0
  5 15  1  0  0  0  0
  6  7  1  0  0  0  0
  6 20  1  0  0  0  0
  6 21  1  0  0  0  0
  7  8  1  0  0  0  0
  7 12  2  0  0  0  0
  8  9  2  0  0  0  0
  8 22  1  0  0  0  0
  9 10  1  0  0  0  0
  9 23  1  0  0  0  0
 10 11  2  0  0  0  0
 10 24  1  0  0  0  0
 11 12  1  0  0  0  0
 11 25  1  0  0  0  0
 12 13  1  0  0  0  0
 14 15  1  0  0  0  0
 14 26  1  0  0  0  0
 14 27  1  0  0  0  0
 15 28  1  0  0  0  0
 15 29  1  0  0  0  0
M  END
$$$$
