MD_3_clus4
  MOE2019           3D

 18 18  0  0  0  0  0  0  0  0999 V2000
  -13.6728   14.2834   22.8019 C   0  0  0  0  0  0  0  0  0  0  0  0
  -14.3685   12.9418   22.4423 C   0  0  0  0  0  0  0  0  0  0  0  0
  -15.6556   12.9675   23.1350 N   0  0  0  0  0  0  0  0  0  0  0  0
  -16.3010   11.9402   23.6855 C   0  0  0  0  0  0  0  0  0  0  0  0
  -15.8783   10.8028   23.6432 O   0  0  0  0  0  0  0  0  0  0  0  0
  -17.5745   12.2651   24.4049 C   0  0  0  0  0  0  0  0  0  0  0  0
  -18.3968   11.2723   24.9342 C   0  0  0  0  0  0  0  0  0  0  0  0
  -19.5897   11.7664   25.3082 N   0  0  0  0  0  0  0  0  0  0  0  0
  -19.4112   13.0483   25.1535 N   0  0  0  0  0  0  0  0  0  0  0  0
  -18.2414   13.4177   24.5890 N   0  0  0  0  0  0  0  0  0  0  0  0
  -12.9560   14.4890   22.0044 H   0  0  0  0  0  0  0  0  0  0  0  0
  -14.4102   15.0882   22.8507 H   0  0  0  0  0  0  0  0  0  0  0  0
  -13.1867   14.2505   23.7790 H   0  0  0  0  0  0  0  0  0  0  0  0
  -14.4988   12.7492   21.3740 H   0  0  0  0  0  0  0  0  0  0  0  0
  -13.7513   12.1308   22.8369 H   0  0  0  0  0  0  0  0  0  0  0  0
  -16.0471   13.8427   23.4515 H   0  0  0  0  0  0  0  0  0  0  0  0
  -18.1746   10.2137   24.9892 H   0  0  0  0  0  0  0  0  0  0  0  0
  -20.1305   13.6435   25.5435 H   0  0  0  0  0  0  0  0  0  0  0  0
  1  2  1  0  0  0  0
  1 11  1  0  0  0  0
  1 12  1  0  0  0  0
  1 13  1  0  0  0  0
  2  3  1  0  0  0  0
  2 14  1  0  0  0  0
  2 15  1  0  0  0  0
  3  4  1  0  0  0  0
  3 16  1  0  0  0  0
  4  5  2  0  0  0  0
  4  6  1  0  0  0  0
  6  7  1  0  0  0  0
  6 10  2  0  0  0  0
  7  8  2  0  0  0  0
  7 17  1  0  0  0  0
  8  9  1  0  0  0  0
  9 10  1  0  0  0  0
  9 18  1  0  0  0  0
M  END
$$$$
