MD_1_clus5
  MOE2019           3D

 26 26  0  0  0  0  0  0  0  0999 V2000
  -15.0522   18.7153   25.8443 C   0  0  0  0  0  0  0  0  0  0  0  0
  -16.1464   18.4631   27.1431 S   0  0  0  0  0  0  0  0  0  0  0  0
  -15.5788   17.5999   28.1356 O   0  0  0  0  0  0  0  0  0  0  0  0
  -16.7984   19.6156   27.5525 O   0  0  0  0  0  0  0  0  0  0  0  0
  -17.3016   17.5931   26.4481 N   0  0  0  0  0  0  0  0  0  0  0  0
  -17.1724   16.1496   26.5480 C   0  0  0  0  0  0  0  0  0  0  0  0
  -18.4950   15.3630   26.1420 C   0  0  0  0  0  0  0  0  0  0  0  0
  -18.2278   13.9596   25.8572 C   0  0  0  0  0  0  0  0  0  0  0  0
  -18.3565   13.0014   26.8612 C   0  0  0  0  0  0  0  0  0  0  0  0
  -18.1448   11.6301   26.6347 C   0  0  0  0  0  0  0  0  0  0  0  0
  -17.9739   11.2209   25.3109 C   0  0  0  0  0  0  0  0  0  0  0  0
  -17.9624    9.9032   25.0731 F   0  0  0  0  0  0  0  0  0  0  0  0
  -17.8815   12.1589   24.2870 C   0  0  0  0  0  0  0  0  0  0  0  0
  -18.0166   13.5442   24.5845 C   0  0  0  0  0  0  0  0  0  0  0  0
  -14.6904   17.7402   25.5058 H   0  0  0  0  0  0  0  0  0  0  0  0
  -15.4974   19.1938   24.9688 H   0  0  0  0  0  0  0  0  0  0  0  0
  -14.2043   19.2509   26.2795 H   0  0  0  0  0  0  0  0  0  0  0  0
  -18.0631   17.8955   27.0517 H   0  0  0  0  0  0  0  0  0  0  0  0
  -16.4273   15.8344   25.8140 H   0  0  0  0  0  0  0  0  0  0  0  0
  -16.8705   15.8255   27.5474 H   0  0  0  0  0  0  0  0  0  0  0  0
  -19.2308   15.4533   26.9432 H   0  0  0  0  0  0  0  0  0  0  0  0
  -18.9618   15.7788   25.2464 H   0  0  0  0  0  0  0  0  0  0  0  0
  -18.5506   13.3255   27.8798 H   0  0  0  0  0  0  0  0  0  0  0  0
  -18.2581   10.9056   27.4374 H   0  0  0  0  0  0  0  0  0  0  0  0
  -17.9004   11.7982   23.2618 H   0  0  0  0  0  0  0  0  0  0  0  0
  -18.0088   14.2450   23.7536 H   0  0  0  0  0  0  0  0  0  0  0  0
  1  2  1  0  0  0  0
  1 15  1  0  0  0  0
  1 16  1  0  0  0  0
  1 17  1  0  0  0  0
  2  3  2  0  0  0  0
  2  4  2  0  0  0  0
  2  5  1  0  0  0  0
  5  6  1  0  0  0  0
  5 18  1  0  0  0  0
  6  7  1  0  0  0  0
  6 19  1  0  0  0  0
  6 20  1  0  0  0  0
  7  8  1  0  0  0  0
  7 21  1  0  0  0  0
  7 22  1  0  0  0  0
  8  9  1  0  0  0  0
  8 14  2  0  0  0  0
  9 10  2  0  0  0  0
  9 23  1  0  0  0  0
 10 11  1  0  0  0  0
 10 24  1  0  0  0  0
 11 12  1  0  0  0  0
 11 13  2  0  0  0  0
 13 14  1  0  0  0  0
 13 25  1  0  0  0  0
 14 26  1  0  0  0  0
M  END
$$$$
