MD_3_clus4
  MOE2019           3D

 23 24  0  0  0  0  0  0  0  0999 V2000
  -22.5601   14.2436   28.9506 O   0  0  0  0  0  0  0  0  0  0  0  0
  -22.0677   14.8914   28.0261 C   0  0  0  0  0  0  0  0  0  0  0  0
  -20.7701   14.7474   27.6729 N   0  0  0  0  0  0  0  0  0  0  0  0
  -19.8955   15.8581   27.1951 C   0  0  0  0  0  0  0  0  0  0  0  0
  -18.4548   15.3571   27.1831 C   0  0  0  0  0  0  0  0  0  0  0  0
  -18.4861   14.0045   27.9356 C   0  0  0  0  0  0  0  0  0  0  0  0
  -19.9897   13.5895   28.1453 C   0  0  0  0  0  0  0  0  0  0  0  0
  -22.8753   15.9966   27.4085 C   0  0  0  0  0  0  0  0  0  0  0  0
  -22.6875   16.9979   26.3893 C   0  0  0  0  0  0  0  0  0  0  0  0
  -23.7698   17.7263   26.3474 N   0  0  0  0  0  0  0  0  0  0  0  0
  -24.6698   17.2102   27.1893 N   0  0  0  0  0  0  0  0  0  0  0  0
  -24.1807   16.1786   27.8525 C   0  0  0  0  0  0  0  0  0  0  0  0
  -20.1420   16.2298   26.1971 H   0  0  0  0  0  0  0  0  0  0  0  0
  -19.8994   16.6974   27.8945 H   0  0  0  0  0  0  0  0  0  0  0  0
  -18.1166   15.0278   26.1981 H   0  0  0  0  0  0  0  0  0  0  0  0
  -17.8081   16.1563   27.5529 H   0  0  0  0  0  0  0  0  0  0  0  0
  -18.0116   13.1666   27.4215 H   0  0  0  0  0  0  0  0  0  0  0  0
  -18.0281   14.0911   28.9236 H   0  0  0  0  0  0  0  0  0  0  0  0
  -20.2279   13.2769   29.1649 H   0  0  0  0  0  0  0  0  0  0  0  0
  -20.1187   12.8380   27.3628 H   0  0  0  0  0  0  0  0  0  0  0  0
  -21.8333   17.2205   25.7623 H   0  0  0  0  0  0  0  0  0  0  0  0
  -25.5470   17.6765   27.3772 H   0  0  0  0  0  0  0  0  0  0  0  0
  -24.8224   15.6351   28.5339 H   0  0  0  0  0  0  0  0  0  0  0  0
  1  2  2  0  0  0  0
  2  3  1  0  0  0  0
  2  8  1  0  0  0  0
  3  4  1  0  0  0  0
  3  7  1  0  0  0  0
  4  5  1  0  0  0  0
  4 13  1  0  0  0  0
  4 14  1  0  0  0  0
  5  6  1  0  0  0  0
  5 15  1  0  0  0  0
  5 16  1  0  0  0  0
  6  7  1  0  0  0  0
  6 17  1  0  0  0  0
  6 18  1  0  0  0  0
  7 19  1  0  0  0  0
  7 20  1  0  0  0  0
  8  9  1  0  0  0  0
  8 12  2  0  0  0  0
  9 10  2  0  0  0  0
  9 21  1  0  0  0  0
 10 11  1  0  0  0  0
 11 12  1  0  0  0  0
 11 22  1  0  0  0  0
 12 23  1  0  0  0  0
M  END
$$$$
