MD_3_clus0
  MOE2019           3D

 23 24  0  0  0  0  0  0  0  0999 V2000
  -16.3133   12.8932   25.5484 C   0  0  0  0  0  0  0  0  0  0  0  0
  -17.5968   13.5635   25.2401 N   0  3  0  0  0  0  0  0  0  0  0  0
  -18.0626   14.3706   26.4767 C   0  0  0  0  0  0  0  0  0  0  0  0
  -18.5416   13.6528   27.6690 C   0  0  0  0  0  0  0  0  0  0  0  0
  -18.2233   12.3773   27.9506 N   0  0  0  0  0  0  0  0  0  0  0  0
  -18.9824   11.9614   29.0568 N   0  0  0  0  0  0  0  0  0  0  0  0
  -19.5861   13.0556   29.4525 C   0  0  0  0  0  0  0  0  0  0  0  0
  -20.4828   13.2356   30.5703 C   0  0  0  0  0  0  0  0  0  0  0  0
  -20.9740   14.5214   30.8000 C   0  0  0  0  0  0  0  0  0  0  0  0
  -20.7688   15.5491   29.8163 C   0  0  0  0  0  0  0  0  0  0  0  0
  -19.9845   15.3528   28.6830 C   0  0  0  0  0  0  0  0  0  0  0  0
  -19.3833   14.0936   28.5966 N   0  0  0  0  0  0  0  0  0  0  0  0
  -15.4118   13.4874   25.7094 H   0  0  0  0  0  0  0  0  0  0  0  0
  -16.5040   12.2635   26.4180 H   0  0  0  0  0  0  0  0  0  0  0  0
  -15.9875   12.2488   24.7303 H   0  0  0  0  0  0  0  0  0  0  0  0
  -17.6055   14.1915   24.4200 H   0  0  0  0  0  0  0  0  0  0  0  0
  -17.2646   15.0303   26.8219 H   0  0  0  0  0  0  0  0  0  0  0  0
  -18.8657   15.0529   26.1960 H   0  0  0  0  0  0  0  0  0  0  0  0
  -20.5914   12.4256   31.2852 H   0  0  0  0  0  0  0  0  0  0  0  0
  -21.4494   14.6819   31.7613 H   0  0  0  0  0  0  0  0  0  0  0  0
  -21.1945   16.5329   29.9787 H   0  0  0  0  0  0  0  0  0  0  0  0
  -19.7741   16.1252   27.9544 H   0  0  0  0  0  0  0  0  0  0  0  0
  -18.3115   12.8472   25.0302 H   0  0  0  0  0  0  0  0  0  0  0  0
  1  2  1  0  0  0  0
  1 13  1  0  0  0  0
  1 14  1  0  0  0  0
  1 15  1  0  0  0  0
  2  3  1  0  0  0  0
  2 16  1  0  0  0  0
  2 23  1  0  0  0  0
  3  4  1  0  0  0  0
  3 17  1  0  0  0  0
  3 18  1  0  0  0  0
  4  5  2  0  0  0  0
  4 12  1  0  0  0  0
  5  6  1  0  0  0  0
  6  7  2  0  0  0  0
  7  8  1  0  0  0  0
  7 12  1  0  0  0  0
  8  9  2  0  0  0  0
  8 19  1  0  0  0  0
  9 10  1  0  0  0  0
  9 20  1  0  0  0  0
 10 11  2  0  0  0  0
 10 21  1  0  0  0  0
 11 12  1  0  0  0  0
 11 22  1  0  0  0  0
M  CHG  1   2   1
M  END
$$$$
