MD_1_clus2
  MOE2019           3D

 39 40  0  0  0  0  0  0  0  0999 V2000
  -23.0223   18.9490   26.0771 C   0  0  0  0  0  0  0  0  0  0  0  0
  -21.8690   18.5337   26.8975 N   0  3  0  0  0  0  0  0  0  0  0  0
  -20.5198   18.8878   26.3430 C   0  0  0  0  0  0  0  0  0  0  0  0
  -19.3501   18.4290   27.1759 C   0  0  0  0  0  0  0  0  0  0  0  0
  -19.4480   16.9788   27.5157 N   0  0  0  0  0  0  0  0  0  0  0  0
  -20.7995   16.5097   28.0160 C   0  0  0  0  0  0  0  0  0  0  0  0
  -21.9572   17.0449   27.2735 C   0  0  0  0  0  0  0  0  0  0  0  0
  -18.3174   16.2669   27.6652 C   0  0  0  0  0  0  0  0  0  0  0  0
  -17.2296   16.6875   27.3149 O   0  0  0  0  0  0  0  0  0  0  0  0
  -18.4877   14.8277   28.2000 C   0  0  0  0  0  0  0  0  0  0  0  0
  -19.1542   13.8336   27.2719 O   0  0  0  0  0  0  0  0  0  0  0  0
  -18.5238   13.2083   26.2815 C   0  0  0  0  0  0  0  0  0  0  0  0
  -17.3780   13.7822   25.6417 C   0  0  0  0  0  0  0  0  0  0  0  0
  -16.8132   13.1164   24.5720 C   0  0  0  0  0  0  0  0  0  0  0  0
  -17.3314   11.9338   24.1242 C   0  0  0  0  0  0  0  0  0  0  0  0
  -16.7684   11.1889   22.8702 C   0  0  0  0  0  0  0  0  0  0  0  0
  -18.4156   11.3149   24.8059 C   0  0  0  0  0  0  0  0  0  0  0  0
  -19.0468   11.9794   25.8747 C   0  0  0  0  0  0  0  0  0  0  0  0
  -22.8288   18.4771   25.1120 H   0  0  0  0  0  0  0  0  0  0  0  0
  -23.9669   18.7153   26.5703 H   0  0  0  0  0  0  0  0  0  0  0  0
  -23.0104   20.0390   26.0478 H   0  0  0  0  0  0  0  0  0  0  0  0
  -20.5176   18.5111   25.3186 H   0  0  0  0  0  0  0  0  0  0  0  0
  -20.4895   19.9476   26.0864 H   0  0  0  0  0  0  0  0  0  0  0  0
  -18.3615   18.7107   26.8043 H   0  0  0  0  0  0  0  0  0  0  0  0
  -19.4346   19.0372   28.0797 H   0  0  0  0  0  0  0  0  0  0  0  0
  -20.8514   15.4182   28.0484 H   0  0  0  0  0  0  0  0  0  0  0  0
  -20.9765   16.7721   29.0613 H   0  0  0  0  0  0  0  0  0  0  0  0
  -22.8541   16.9307   27.8837 H   0  0  0  0  0  0  0  0  0  0  0  0
  -21.9449   16.3954   26.3963 H   0  0  0  0  0  0  0  0  0  0  0  0
  -17.4569   14.5230   28.3972 H   0  0  0  0  0  0  0  0  0  0  0  0
  -18.9605   14.8108   29.1850 H   0  0  0  0  0  0  0  0  0  0  0  0
  -17.0625   14.7787   25.9414 H   0  0  0  0  0  0  0  0  0  0  0  0
  -15.9849   13.6500   24.1129 H   0  0  0  0  0  0  0  0  0  0  0  0
  -16.4504   10.1586   23.0427 H   0  0  0  0  0  0  0  0  0  0  0  0
  -17.5218   11.2022   22.0793 H   0  0  0  0  0  0  0  0  0  0  0  0
  -15.9920   11.8038   22.4118 H   0  0  0  0  0  0  0  0  0  0  0  0
  -18.7324   10.2946   24.5999 H   0  0  0  0  0  0  0  0  0  0  0  0
  -19.9280   11.6375   26.4110 H   0  0  0  0  0  0  0  0  0  0  0  0
  -21.8717   19.0845   27.7717 H   0  0  0  0  0  0  0  0  0  0  0  0
  1  2  1  0  0  0  0
  1 19  1  0  0  0  0
  1 20  1  0  0  0  0
  1 21  1  0  0  0  0
  2  3  1  0  0  0  0
  2  7  1  0  0  0  0
  2 39  1  0  0  0  0
  3  4  1  0  0  0  0
  3 22  1  0  0  0  0
  3 23  1  0  0  0  0
  4  5  1  0  0  0  0
  4 24  1  0  0  0  0
  4 25  1  0  0  0  0
  5  6  1  0  0  0  0
  5  8  1  0  0  0  0
  6  7  1  0  0  0  0
  6 26  1  0  0  0  0
  6 27  1  0  0  0  0
  7 28  1  0  0  0  0
  7 29  1  0  0  0  0
  8  9  2  0  0  0  0
  8 10  1  0  0  0  0
 10 11  1  0  0  0  0
 10 30  1  0  0  0  0
 10 31  1  0  0  0  0
 11 12  1  0  0  0  0
 12 13  1  0  0  0  0
 12 18  2  0  0  0  0
 13 14  2  0  0  0  0
 13 32  1  0  0  0  0
 14 15  1  0  0  0  0
 14 33  1  0  0  0  0
 15 16  1  0  0  0  0
 15 17  2  0  0  0  0
 16 34  1  0  0  0  0
 16 35  1  0  0  0  0
 16 36  1  0  0  0  0
 17 18  1  0  0  0  0
 17 37  1  0  0  0  0
 18 38  1  0  0  0  0
M  CHG  1   2   1
M  END
$$$$
