MD_3_clus1
  MOE2019           3D

 30 31  0  0  0  0  0  0  0  0999 V2000
  -14.2710   17.6872   23.7629 N   0  0  0  0  0  0  0  0  0  0  0  0
  -13.7791   16.4784   23.5837 C   0  0  0  0  0  0  0  0  0  0  0  0
  -12.8246   16.3385   22.9041 O   0  0  0  0  0  0  0  0  0  0  0  0
  -14.4539   15.4038   24.0939 N   0  0  0  0  0  0  0  0  0  0  0  0
  -14.0669   14.0166   23.8245 C   0  0  0  0  0  0  0  0  0  0  0  0
  -15.3283   13.1414   23.4252 C   0  0  0  0  0  0  0  0  0  0  0  0
  -16.3775   13.2782   24.3862 N   0  0  0  0  0  0  0  0  0  0  0  0
  -16.2208   14.2499   25.4932 C   0  0  0  0  0  0  0  0  0  0  0  0
  -15.7096   15.5270   24.8997 C   0  0  0  0  0  0  0  0  0  0  0  0
  -17.4683   12.4077   24.4535 C   0  0  0  0  0  0  0  0  0  0  0  0
  -18.2214   12.2859   25.6484 C   0  0  0  0  0  0  0  0  0  0  0  0
  -19.4912   11.6985   25.5565 C   0  0  0  0  0  0  0  0  0  0  0  0
  -20.0186   11.2980   24.3533 C   0  0  0  0  0  0  0  0  0  0  0  0
  -21.3310   11.0341   24.2308 F   0  0  0  0  0  0  0  0  0  0  0  0
  -19.2607   11.4101   23.2258 C   0  0  0  0  0  0  0  0  0  0  0  0
  -17.9575   11.8663   23.2766 C   0  0  0  0  0  0  0  0  0  0  0  0
  -13.8040   18.5131   23.4167 H   0  0  0  0  0  0  0  0  0  0  0  0
  -15.2751   17.7644   23.7116 H   0  0  0  0  0  0  0  0  0  0  0  0
  -13.3799   13.9828   22.9756 H   0  0  0  0  0  0  0  0  0  0  0  0
  -13.5148   13.5255   24.6295 H   0  0  0  0  0  0  0  0  0  0  0  0
  -15.6454   13.3856   22.4077 H   0  0  0  0  0  0  0  0  0  0  0  0
  -15.0459   12.0926   23.2995 H   0  0  0  0  0  0  0  0  0  0  0  0
  -17.1453   14.5845   25.9709 H   0  0  0  0  0  0  0  0  0  0  0  0
  -15.4930   13.9169   26.2380 H   0  0  0  0  0  0  0  0  0  0  0  0
  -15.3883   16.1495   25.7378 H   0  0  0  0  0  0  0  0  0  0  0  0
  -16.5434   15.9755   24.3533 H   0  0  0  0  0  0  0  0  0  0  0  0
  -17.8142   12.5477   26.6220 H   0  0  0  0  0  0  0  0  0  0  0  0
  -20.1454   11.6525   26.4241 H   0  0  0  0  0  0  0  0  0  0  0  0
  -19.7599   11.1717   22.2902 H   0  0  0  0  0  0  0  0  0  0  0  0
  -17.4634   12.1883   22.3642 H   0  0  0  0  0  0  0  0  0  0  0  0
  1  2  1  0  0  0  0
  1 17  1  0  0  0  0
  1 18  1  0  0  0  0
  2  3  2  0  0  0  0
  2  4  1  0  0  0  0
  4  5  1  0  0  0  0
  4  9  1  0  0  0  0
  5  6  1  0  0  0  0
  5 19  1  0  0  0  0
  5 20  1  0  0  0  0
  6  7  1  0  0  0  0
  6 21  1  0  0  0  0
  6 22  1  0  0  0  0
  7  8  1  0  0  0  0
  7 10  1  0  0  0  0
  8  9  1  0  0  0  0
  8 23  1  0  0  0  0
  8 24  1  0  0  0  0
  9 25  1  0  0  0  0
  9 26  1  0  0  0  0
 10 11  1  0  0  0  0
 10 16  2  0  0  0  0
 11 12  2  0  0  0  0
 11 27  1  0  0  0  0
 12 13  1  0  0  0  0
 12 28  1  0  0  0  0
 13 14  1  0  0  0  0
 13 15  2  0  0  0  0
 15 16  1  0  0  0  0
 15 29  1  0  0  0  0
 16 30  1  0  0  0  0
M  END
$$$$
