MD_2_clus1
  MOE2019           3D

 23 24  0  0  0  0  0  0  0  0999 V2000
  -23.9031   19.1597   30.9747 C   0  0  0  0  0  0  0  0  0  0  0  0
  -22.3533   19.0279   30.8081 N   0  3  0  0  0  0  0  0  0  0  0  0
  -21.8149   18.7675   29.3437 C   0  0  0  0  0  0  0  0  0  0  0  0
  -22.5546   17.6186   28.7474 C   0  0  0  0  0  0  0  0  0  0  0  0
  -23.3318   17.7169   27.6315 N   0  0  0  0  0  0  0  0  0  0  0  0
  -23.7618   16.4071   27.3914 N   0  0  0  0  0  0  0  0  0  0  0  0
  -23.2978   15.6613   28.3923 C   0  0  0  0  0  0  0  0  0  0  0  0
  -23.5345   14.2360   28.5859 C   0  0  0  0  0  0  0  0  0  0  0  0
  -23.1703   13.6759   29.7782 C   0  0  0  0  0  0  0  0  0  0  0  0
  -22.4954   14.5202   30.7805 C   0  0  0  0  0  0  0  0  0  0  0  0
  -22.0685   15.8295   30.4202 C   0  0  0  0  0  0  0  0  0  0  0  0
  -22.8303   16.4105   29.3437 N   0  0  0  0  0  0  0  0  0  0  0  0
  -24.4089   18.2759   30.5822 H   0  0  0  0  0  0  0  0  0  0  0  0
  -24.0012   19.1812   32.0610 H   0  0  0  0  0  0  0  0  0  0  0  0
  -24.3457   20.0509   30.5266 H   0  0  0  0  0  0  0  0  0  0  0  0
  -21.9761   19.8888   31.2378 H   0  0  0  0  0  0  0  0  0  0  0  0
  -21.8320   19.6076   28.6480 H   0  0  0  0  0  0  0  0  0  0  0  0
  -20.7933   18.3865   29.3387 H   0  0  0  0  0  0  0  0  0  0  0  0
  -23.9603   13.5755   27.8370 H   0  0  0  0  0  0  0  0  0  0  0  0
  -23.4361   12.6436   29.9769 H   0  0  0  0  0  0  0  0  0  0  0  0
  -22.1651   14.0981   31.7245 H   0  0  0  0  0  0  0  0  0  0  0  0
  -21.4646   16.5389   30.9718 H   0  0  0  0  0  0  0  0  0  0  0  0
  -21.9159   18.3670   31.4696 H   0  0  0  0  0  0  0  0  0  0  0  0
  1  2  1  0  0  0  0
  1 13  1  0  0  0  0
  1 14  1  0  0  0  0
  1 15  1  0  0  0  0
  2  3  1  0  0  0  0
  2 16  1  0  0  0  0
  2 23  1  0  0  0  0
  3  4  1  0  0  0  0
  3 17  1  0  0  0  0
  3 18  1  0  0  0  0
  4  5  2  0  0  0  0
  4 12  1  0  0  0  0
  5  6  1  0  0  0  0
  6  7  2  0  0  0  0
  7  8  1  0  0  0  0
  7 12  1  0  0  0  0
  8  9  2  0  0  0  0
  8 19  1  0  0  0  0
  9 10  1  0  0  0  0
  9 20  1  0  0  0  0
 10 11  2  0  0  0  0
 10 21  1  0  0  0  0
 11 12  1  0  0  0  0
 11 22  1  0  0  0  0
M  CHG  1   2   1
M  END
$$$$
