MD_1_clus11
  MOE2019           3D

 24 25  0  0  0  0  0  0  0  0999 V2000
  -18.0397   14.2792   28.9197 F   0  0  0  0  0  0  0  0  0  0  0  0
  -18.1038   14.2223   27.5135 C   0  0  0  0  0  0  0  0  0  0  0  0
  -18.8513   13.2736   26.8385 C   0  0  0  0  0  0  0  0  0  0  0  0
  -18.6597   12.9254   25.5060 C   0  0  0  0  0  0  0  0  0  0  0  0
  -17.8149   13.7686   24.7526 C   0  0  0  0  0  0  0  0  0  0  0  0
  -17.2299   14.8892   25.3602 C   0  0  0  0  0  0  0  0  0  0  0  0
  -17.3461   15.1257   26.7663 C   0  0  0  0  0  0  0  0  0  0  0  0
  -16.6169   16.1093   27.4087 N   0  0  0  0  0  0  0  0  0  0  0  0
  -15.8485   17.1850   26.7561 C   0  0  0  0  0  0  0  0  0  0  0  0
  -15.2154   18.2514   27.6830 C   0  0  0  0  0  0  0  0  0  0  0  0
  -15.9245   19.4252   28.0567 C   0  0  0  0  0  0  0  0  0  0  0  0
  -14.9464   20.2671   28.4595 C   0  0  0  0  0  0  0  0  0  0  0  0
  -13.8615   19.4537   28.7310 N   0  0  0  0  0  0  0  0  0  0  0  0
  -13.9569   18.2321   28.1863 N   0  0  0  0  0  0  0  0  0  0  0  0
  -19.5176   12.6535   27.4323 H   0  0  0  0  0  0  0  0  0  0  0  0
  -19.2670   12.1925   24.9821 H   0  0  0  0  0  0  0  0  0  0  0  0
  -17.5649   13.6584   23.7002 H   0  0  0  0  0  0  0  0  0  0  0  0
  -16.4250   15.4267   24.8657 H   0  0  0  0  0  0  0  0  0  0  0  0
  -17.0311   16.3746   28.2953 H   0  0  0  0  0  0  0  0  0  0  0  0
  -15.0058   16.6744   26.2835 H   0  0  0  0  0  0  0  0  0  0  0  0
  -16.5345   17.5929   26.0095 H   0  0  0  0  0  0  0  0  0  0  0  0
  -16.9535   19.6342   27.7834 H   0  0  0  0  0  0  0  0  0  0  0  0
  -15.0057   21.3031   28.7682 H   0  0  0  0  0  0  0  0  0  0  0  0
  -13.0352   19.7843   29.2110 H   0  0  0  0  0  0  0  0  0  0  0  0
  1  2  1  0  0  0  0
  2  3  1  0  0  0  0
  2  7  2  0  0  0  0
  3  4  2  0  0  0  0
  3 15  1  0  0  0  0
  4  5  1  0  0  0  0
  4 16  1  0  0  0  0
  5  6  2  0  0  0  0
  5 17  1  0  0  0  0
  6  7  1  0  0  0  0
  6 18  1  0  0  0  0
  7  8  1  0  0  0  0
  8  9  1  0  0  0  0
  8 19  1  0  0  0  0
  9 10  1  0  0  0  0
  9 20  1  0  0  0  0
  9 21  1  0  0  0  0
 10 11  1  0  0  0  0
 10 14  2  0  0  0  0
 11 12  2  0  0  0  0
 11 22  1  0  0  0  0
 12 13  1  0  0  0  0
 12 23  1  0  0  0  0
 13 14  1  0  0  0  0
 13 24  1  0  0  0  0
M  END
$$$$
