MD_2_clus1
  MOE2019           3D

 32 33  0  0  0  0  0  0  0  0999 V2000
  -23.7790   12.9834   24.2234 C   0  0  0  0  0  0  0  0  0  0  0  0
  -22.8052   14.0782   24.9996 C   0  0  0  0  0  0  0  0  0  0  0  0
  -22.7516   13.9060   26.4584 N   0  0  0  0  0  0  0  0  0  0  0  0
  -22.3179   12.7365   27.1168 C   0  0  0  0  0  0  0  0  0  0  0  0
  -22.6114   12.9478   28.4231 C   0  0  0  0  0  0  0  0  0  0  0  0
  -22.3595   12.0352   29.4037 N   0  0  0  0  0  0  0  0  0  0  0  0
  -22.6806   12.0158   30.6949 C   0  0  0  0  0  0  0  0  0  0  0  0
  -23.3752   12.9670   31.1216 O   0  0  0  0  0  0  0  0  0  0  0  0
  -22.2806   10.7226   31.4137 C   0  0  0  0  0  0  0  0  0  0  0  0
  -23.3640    9.7157   31.5662 C   0  0  0  0  0  0  0  0  0  0  0  0
  -22.8365    8.8028   32.7436 C   0  0  0  0  0  0  0  0  0  0  0  0
  -21.9957    9.6941   33.6495 C   0  0  0  0  0  0  0  0  0  0  0  0
  -21.7406   10.9983   32.7965 C   0  0  0  0  0  0  0  0  0  0  0  0
  -23.2318   14.1986   28.5261 C   0  0  0  0  0  0  0  0  0  0  0  0
  -23.3330   14.7881   27.3539 N   0  0  0  0  0  0  0  0  0  0  0  0
  -23.2667   12.0231   24.1448 H   0  0  0  0  0  0  0  0  0  0  0  0
  -24.6013   12.8279   24.9250 H   0  0  0  0  0  0  0  0  0  0  0  0
  -24.1012   13.3016   23.2293 H   0  0  0  0  0  0  0  0  0  0  0  0
  -21.7784   14.0142   24.6297 H   0  0  0  0  0  0  0  0  0  0  0  0
  -23.2866   15.0524   24.8846 H   0  0  0  0  0  0  0  0  0  0  0  0
  -21.8819   11.9009   26.5850 H   0  0  0  0  0  0  0  0  0  0  0  0
  -21.9187   11.1701   29.1293 H   0  0  0  0  0  0  0  0  0  0  0  0
  -21.5714   10.2319   30.7435 H   0  0  0  0  0  0  0  0  0  0  0  0
  -24.3348   10.1513   31.8135 H   0  0  0  0  0  0  0  0  0  0  0  0
  -23.5212    9.1336   30.6552 H   0  0  0  0  0  0  0  0  0  0  0  0
  -23.7070    8.3668   33.2377 H   0  0  0  0  0  0  0  0  0  0  0  0
  -22.2086    8.0041   32.3436 H   0  0  0  0  0  0  0  0  0  0  0  0
  -22.5615    9.9456   34.5486 H   0  0  0  0  0  0  0  0  0  0  0  0
  -21.0492    9.1922   33.8598 H   0  0  0  0  0  0  0  0  0  0  0  0
  -20.6849   11.2712   32.8503 H   0  0  0  0  0  0  0  0  0  0  0  0
  -22.3194   11.8129   33.2358 H   0  0  0  0  0  0  0  0  0  0  0  0
  -23.6096   14.7017   29.4080 H   0  0  0  0  0  0  0  0  0  0  0  0
  1  2  1  0  0  0  0
  1 16  1  0  0  0  0
  1 17  1  0  0  0  0
  1 18  1  0  0  0  0
  2  3  1  0  0  0  0
  2 19  1  0  0  0  0
  2 20  1  0  0  0  0
  3  4  1  0  0  0  0
  3 15  1  0  0  0  0
  4  5  2  0  0  0  0
  4 21  1  0  0  0  0
  5  6  1  0  0  0  0
  5 14  1  0  0  0  0
  6  7  1  0  0  0  0
  6 22  1  0  0  0  0
  7  8  2  0  0  0  0
  7  9  1  0  0  0  0
  9 10  1  0  0  0  0
  9 13  1  0  0  0  0
  9 23  1  0  0  0  0
 10 11  1  0  0  0  0
 10 24  1  0  0  0  0
 10 25  1  0  0  0  0
 11 12  1  0  0  0  0
 11 26  1  0  0  0  0
 11 27  1  0  0  0  0
 12 13  1  0  0  0  0
 12 28  1  0  0  0  0
 12 29  1  0  0  0  0
 13 30  1  0  0  0  0
 13 31  1  0  0  0  0
 14 15  2  0  0  0  0
 14 32  1  0  0  0  0
M  END
$$$$
