MD_3_clus2
  MOE2019           3D

 16 16  0  0  0  0  0  0  0  0999 V2000
  -18.9298   12.3997   27.1463 C   0  0  0  0  0  0  0  0  0  0  0  0
  -18.2145   12.5894   25.9015 O   0  0  0  0  0  0  0  0  0  0  0  0
  -18.3582   11.4559   24.9247 C   0  0  0  0  0  0  0  0  0  0  0  0
  -17.4260   11.7051   23.8243 C   0  0  0  0  0  0  0  0  0  0  0  0
  -16.7090   10.6940   23.3058 N   0  0  0  0  0  0  0  0  0  0  0  0
  -15.6949   11.0908   22.4487 N   0  0  0  0  0  0  0  0  0  0  0  0
  -15.5431   12.4270   22.5631 C   0  0  0  0  0  0  0  0  0  0  0  0
  -14.4730   13.0634   22.0227 N   0  0  0  0  0  0  0  0  0  0  0  0
  -16.7567   13.2243   23.5617 S   0  0  0  0  0  0  0  0  0  0  0  0
  -19.1442   13.3835   27.5723 H   0  0  0  0  0  0  0  0  0  0  0  0
  -19.8714   11.9407   26.8355 H   0  0  0  0  0  0  0  0  0  0  0  0
  -18.3871   11.8233   27.8989 H   0  0  0  0  0  0  0  0  0  0  0  0
  -18.1258   10.5097   25.4206 H   0  0  0  0  0  0  0  0  0  0  0  0
  -19.3690   11.4165   24.5092 H   0  0  0  0  0  0  0  0  0  0  0  0
  -14.1581   13.9414   22.4215 H   0  0  0  0  0  0  0  0  0  0  0  0
  -13.7345   12.5076   21.6064 H   0  0  0  0  0  0  0  0  0  0  0  0
  1  2  1  0  0  0  0
  1 10  1  0  0  0  0
  1 11  1  0  0  0  0
  1 12  1  0  0  0  0
  2  3  1  0  0  0  0
  3  4  1  0  0  0  0
  3 13  1  0  0  0  0
  3 14  1  0  0  0  0
  4  5  2  0  0  0  0
  4  9  1  0  0  0  0
  5  6  1  0  0  0  0
  6  7  2  0  0  0  0
  7  8  1  0  0  0  0
  7  9  1  0  0  0  0
  8 15  1  0  0  0  0
  8 16  1  0  0  0  0
M  END
$$$$
