MD_2_clus0
  MOE2019           3D

 26 27  0  0  0  0  0  0  0  0999 V2000
  -24.4898   13.2314   30.0498 C   0  0  0  0  0  0  0  0  0  0  0  0
  -24.9527   14.4956   29.4138 C   0  0  0  0  0  0  0  0  0  0  0  0
  -25.9613   15.1634   30.1067 C   0  0  0  0  0  0  0  0  0  0  0  0
  -26.3060   16.1794   29.3655 C   0  0  0  0  0  0  0  0  0  0  0  0
  -27.4776   17.0706   29.8167 C   0  0  0  0  0  0  0  0  0  0  0  0
  -28.7393   16.7778   29.0680 N   0  0  0  0  0  0  0  0  0  0  0  0
  -29.0244   17.5690   27.9824 N   0  0  0  0  0  0  0  0  0  0  0  0
  -30.1308   17.4670   27.2714 C   0  0  0  0  0  0  0  0  0  0  0  0
  -30.3153   18.2639   25.9842 C   0  0  0  0  0  0  0  0  0  0  0  0
  -31.0129   16.4384   27.5979 C   0  0  0  0  0  0  0  0  0  0  0  0
  -30.8442   15.7191   28.7368 C   0  0  0  0  0  0  0  0  0  0  0  0
  -29.6267   15.8696   29.5856 C   0  0  0  0  0  0  0  0  0  0  0  0
  -29.3839   15.1870   30.5618 O   0  0  0  0  0  0  0  0  0  0  0  0
  -25.7062   16.1669   28.1284 O   0  0  0  0  0  0  0  0  0  0  0  0
  -24.7864   15.0021   28.1684 N   0  0  0  0  0  0  0  0  0  0  0  0
  -25.3778   12.7420   30.4575 H   0  0  0  0  0  0  0  0  0  0  0  0
  -24.2228   12.6809   29.1450 H   0  0  0  0  0  0  0  0  0  0  0  0
  -23.6434   13.2541   30.7391 H   0  0  0  0  0  0  0  0  0  0  0  0
  -26.2117   14.9861   31.1473 H   0  0  0  0  0  0  0  0  0  0  0  0
  -27.5665   16.8897   30.8907 H   0  0  0  0  0  0  0  0  0  0  0  0
  -27.1521   18.1003   29.6489 H   0  0  0  0  0  0  0  0  0  0  0  0
  -31.3747   18.1883   25.7310 H   0  0  0  0  0  0  0  0  0  0  0  0
  -30.1901   19.3455   26.0547 H   0  0  0  0  0  0  0  0  0  0  0  0
  -29.6842   17.9420   25.1525 H   0  0  0  0  0  0  0  0  0  0  0  0
  -31.8851   16.3724   26.9550 H   0  0  0  0  0  0  0  0  0  0  0  0
  -31.4369   14.9130   29.1561 H   0  0  0  0  0  0  0  0  0  0  0  0
  1  2  1  0  0  0  0
  1 16  1  0  0  0  0
  1 17  1  0  0  0  0
  1 18  1  0  0  0  0
  2  3  1  0  0  0  0
  2 15  2  0  0  0  0
  3  4  2  0  0  0  0
  3 19  1  0  0  0  0
  4  5  1  0  0  0  0
  4 14  1  0  0  0  0
  5  6  1  0  0  0  0
  5 20  1  0  0  0  0
  5 21  1  0  0  0  0
  6  7  1  0  0  0  0
  6 12  1  0  0  0  0
  7  8  2  0  0  0  0
  8  9  1  0  0  0  0
  8 10  1  0  0  0  0
  9 22  1  0  0  0  0
  9 23  1  0  0  0  0
  9 24  1  0  0  0  0
 10 11  2  0  0  0  0
 10 25  1  0  0  0  0
 11 12  1  0  0  0  0
 11 26  1  0  0  0  0
 12 13  2  0  0  0  0
 14 15  1  0  0  0  0
M  END
$$$$
