MD_3_clus1
  MOE2019           3D

 24 25  0  0  0  0  0  0  0  0999 V2000
  -24.0135   11.8563   27.8833 F   0  0  0  0  0  0  0  0  0  0  0  0
  -24.0756   12.9820   28.5940 C   0  0  0  0  0  0  0  0  0  0  0  0
  -25.2691   13.4347   29.1702 C   0  0  0  0  0  0  0  0  0  0  0  0
  -25.1994   14.6086   29.9616 C   0  0  0  0  0  0  0  0  0  0  0  0
  -24.0774   15.4219   29.8606 C   0  0  0  0  0  0  0  0  0  0  0  0
  -22.9113   14.9530   29.2887 C   0  0  0  0  0  0  0  0  0  0  0  0
  -22.8794   13.7385   28.6570 C   0  0  0  0  0  0  0  0  0  0  0  0
  -21.8093   13.2482   27.9411 N   0  0  0  0  0  0  0  0  0  0  0  0
  -20.6260   14.0643   27.6980 C   0  0  0  0  0  0  0  0  0  0  0  0
  -19.7509   13.5128   26.5463 C   0  0  0  0  0  0  0  0  0  0  0  0
  -18.5843   14.1206   26.0711 C   0  0  0  0  0  0  0  0  0  0  0  0
  -17.8195   13.3015   25.2985 C   0  0  0  0  0  0  0  0  0  0  0  0
  -18.6441   12.1509   25.2144 N   0  0  0  0  0  0  0  0  0  0  0  0
  -19.7935   12.2498   25.9815 N   0  0  0  0  0  0  0  0  0  0  0  0
  -26.1115   12.7561   29.0668 H   0  0  0  0  0  0  0  0  0  0  0  0
  -26.0970   14.9222   30.4886 H   0  0  0  0  0  0  0  0  0  0  0  0
  -24.1614   16.4661   30.1515 H   0  0  0  0  0  0  0  0  0  0  0  0
  -22.0824   15.6532   29.2241 H   0  0  0  0  0  0  0  0  0  0  0  0
  -22.0020   12.4311   27.3728 H   0  0  0  0  0  0  0  0  0  0  0  0
  -20.9303   15.1057   27.5658 H   0  0  0  0  0  0  0  0  0  0  0  0
  -20.0693   14.1230   28.6365 H   0  0  0  0  0  0  0  0  0  0  0  0
  -18.3999   15.1505   26.3582 H   0  0  0  0  0  0  0  0  0  0  0  0
  -16.7937   13.3948   24.9613 H   0  0  0  0  0  0  0  0  0  0  0  0
  -18.3183   11.2851   24.8057 H   0  0  0  0  0  0  0  0  0  0  0  0
  1  2  1  0  0  0  0
  2  3  1  0  0  0  0
  2  7  2  0  0  0  0
  3  4  2  0  0  0  0
  3 15  1  0  0  0  0
  4  5  1  0  0  0  0
  4 16  1  0  0  0  0
  5  6  2  0  0  0  0
  5 17  1  0  0  0  0
  6  7  1  0  0  0  0
  6 18  1  0  0  0  0
  7  8  1  0  0  0  0
  8  9  1  0  0  0  0
  8 19  1  0  0  0  0
  9 10  1  0  0  0  0
  9 20  1  0  0  0  0
  9 21  1  0  0  0  0
 10 11  1  0  0  0  0
 10 14  2  0  0  0  0
 11 12  2  0  0  0  0
 11 22  1  0  0  0  0
 12 13  1  0  0  0  0
 12 23  1  0  0  0  0
 13 14  1  0  0  0  0
 13 24  1  0  0  0  0
M  END
$$$$
