MD_1_clus2
  MOE2019           3D

 18 18  0  0  0  0  0  0  0  0999 V2000
  -18.6776   13.6256   27.6480 C   0  0  0  0  0  0  0  0  0  0  0  0
  -19.4188   14.9986   27.6382 C   0  0  0  0  0  0  0  0  0  0  0  0
  -18.5317   16.1992   27.5694 N   0  0  0  0  0  0  0  0  0  0  0  0
  -18.8454   17.4686   27.1839 C   0  0  0  0  0  0  0  0  0  0  0  0
  -19.9680   17.7965   26.9365 O   0  0  0  0  0  0  0  0  0  0  0  0
  -17.7169   18.3780   27.0011 C   0  0  0  0  0  0  0  0  0  0  0  0
  -17.8274   19.7881   26.6151 C   0  0  0  0  0  0  0  0  0  0  0  0
  -16.5637   20.2646   26.4103 N   0  0  0  0  0  0  0  0  0  0  0  0
  -15.7942   19.2058   26.5977 N   0  0  0  0  0  0  0  0  0  0  0  0
  -16.4286   18.0939   27.1051 N   0  0  0  0  0  0  0  0  0  0  0  0
  -17.9572   13.6188   26.8282 H   0  0  0  0  0  0  0  0  0  0  0  0
  -18.1521   13.5283   28.6004 H   0  0  0  0  0  0  0  0  0  0  0  0
  -19.3257   12.7476   27.5987 H   0  0  0  0  0  0  0  0  0  0  0  0
  -20.0429   14.8963   26.7465 H   0  0  0  0  0  0  0  0  0  0  0  0
  -20.1152   15.0233   28.4798 H   0  0  0  0  0  0  0  0  0  0  0  0
  -17.6072   16.0303   27.9374 H   0  0  0  0  0  0  0  0  0  0  0  0
  -18.6766   20.4461   26.4743 H   0  0  0  0  0  0  0  0  0  0  0  0
  -14.7846   19.2382   26.5446 H   0  0  0  0  0  0  0  0  0  0  0  0
  1  2  1  0  0  0  0
  1 11  1  0  0  0  0
  1 12  1  0  0  0  0
  1 13  1  0  0  0  0
  2  3  1  0  0  0  0
  2 14  1  0  0  0  0
  2 15  1  0  0  0  0
  3  4  1  0  0  0  0
  3 16  1  0  0  0  0
  4  5  2  0  0  0  0
  4  6  1  0  0  0  0
  6  7  1  0  0  0  0
  6 10  2  0  0  0  0
  7  8  2  0  0  0  0
  7 17  1  0  0  0  0
  8  9  1  0  0  0  0
  9 10  1  0  0  0  0
  9 18  1  0  0  0  0
M  END
$$$$
