MD_2_clus0
  MOE2019           3D

 16 16  0  0  0  0  0  0  0  0999 V2000
  -19.0240   14.1109   25.7396 C   0  0  0  0  0  0  0  0  0  0  0  0
  -20.0711   14.7545   26.4743 O   0  0  0  0  0  0  0  0  0  0  0  0
  -19.6812   15.3529   27.7201 C   0  0  0  0  0  0  0  0  0  0  0  0
  -19.1179   16.7668   27.4518 C   0  0  0  0  0  0  0  0  0  0  0  0
  -17.8111   16.8849   27.3808 N   0  0  0  0  0  0  0  0  0  0  0  0
  -17.4321   18.1620   27.0276 N   0  0  0  0  0  0  0  0  0  0  0  0
  -18.5173   18.8499   26.7575 C   0  0  0  0  0  0  0  0  0  0  0  0
  -18.4395   20.1599   26.3789 N   0  0  0  0  0  0  0  0  0  0  0  0
  -20.0712   18.0331   26.7575 S   0  0  0  0  0  0  0  0  0  0  0  0
  -18.4841   13.4166   26.3889 H   0  0  0  0  0  0  0  0  0  0  0  0
  -19.4531   13.6962   24.8234 H   0  0  0  0  0  0  0  0  0  0  0  0
  -18.3528   14.9049   25.4031 H   0  0  0  0  0  0  0  0  0  0  0  0
  -20.5865   15.4281   28.3285 H   0  0  0  0  0  0  0  0  0  0  0  0
  -18.9715   14.7006   28.2344 H   0  0  0  0  0  0  0  0  0  0  0  0
  -19.1409   20.4535   25.7075 H   0  0  0  0  0  0  0  0  0  0  0  0
  -17.5251   20.5263   26.1398 H   0  0  0  0  0  0  0  0  0  0  0  0
  1  2  1  0  0  0  0
  1 10  1  0  0  0  0
  1 11  1  0  0  0  0
  1 12  1  0  0  0  0
  2  3  1  0  0  0  0
  3  4  1  0  0  0  0
  3 13  1  0  0  0  0
  3 14  1  0  0  0  0
  4  5  2  0  0  0  0
  4  9  1  0  0  0  0
  5  6  1  0  0  0  0
  6  7  2  0  0  0  0
  7  8  1  0  0  0  0
  7  9  1  0  0  0  0
  8 15  1  0  0  0  0
  8 16  1  0  0  0  0
M  END
$$$$
