MD_3_clus1
  MOE2019           3D

 29 30  0  0  0  0  0  0  0  0999 V2000
  -17.1763   13.6991   26.4047 C   0  0  0  0  0  0  0  0  0  0  0  0
  -18.0309   13.1841   25.3209 C   0  0  0  0  0  0  0  0  0  0  0  0
  -19.3530   12.6949   25.7726 N   0  0  0  0  0  0  0  0  0  0  0  0
  -20.1088   13.3907   26.7008 C   0  0  0  0  0  0  0  0  0  0  0  0
  -21.3333   12.7536   26.7201 C   0  0  0  0  0  0  0  0  0  0  0  0
  -22.3597   13.1985   27.5864 N   0  0  0  0  0  0  0  0  0  0  0  0
  -23.6695   12.9279   27.5384 C   0  0  0  0  0  0  0  0  0  0  0  0
  -24.2230   12.2207   26.6943 O   0  0  0  0  0  0  0  0  0  0  0  0
  -24.1362   13.9729   28.5436 C   0  0  0  0  0  0  0  0  0  0  0  0
  -24.6205   12.9623   29.6590 C   0  0  0  0  0  0  0  0  0  0  0  0
  -25.9410   13.9082   29.5379 C   0  0  0  0  0  0  0  0  0  0  0  0
  -25.6625   13.9943   28.0462 C   0  0  0  0  0  0  0  0  0  0  0  0
  -21.2879   11.7234   25.7548 C   0  0  0  0  0  0  0  0  0  0  0  0
  -20.0769   11.7689   25.1197 N   0  0  0  0  0  0  0  0  0  0  0  0
  -16.1383   13.8504   26.1021 H   0  0  0  0  0  0  0  0  0  0  0  0
  -17.5954   14.5909   26.8752 H   0  0  0  0  0  0  0  0  0  0  0  0
  -17.0734   12.9275   27.1697 H   0  0  0  0  0  0  0  0  0  0  0  0
  -18.1721   14.0192   24.6302 H   0  0  0  0  0  0  0  0  0  0  0  0
  -17.5942   12.3562   24.7576 H   0  0  0  0  0  0  0  0  0  0  0  0
  -19.6302   14.1924   27.2498 H   0  0  0  0  0  0  0  0  0  0  0  0
  -22.0700   13.8899   28.2614 H   0  0  0  0  0  0  0  0  0  0  0  0
  -23.5947   14.9124   28.6892 H   0  0  0  0  0  0  0  0  0  0  0  0
  -24.8003   11.9262   29.3573 H   0  0  0  0  0  0  0  0  0  0  0  0
  -24.2021   13.1275   30.6563 H   0  0  0  0  0  0  0  0  0  0  0  0
  -26.9208   13.5136   29.8211 H   0  0  0  0  0  0  0  0  0  0  0  0
  -25.9936   14.9172   29.9567 H   0  0  0  0  0  0  0  0  0  0  0  0
  -25.8802   14.9151   27.4955 H   0  0  0  0  0  0  0  0  0  0  0  0
  -26.1505   13.2333   27.4287 H   0  0  0  0  0  0  0  0  0  0  0  0
  -22.0492   11.0589   25.3651 H   0  0  0  0  0  0  0  0  0  0  0  0
  1  2  1  0  0  0  0
  1 15  1  0  0  0  0
  1 16  1  0  0  0  0
  1 17  1  0  0  0  0
  2  3  1  0  0  0  0
  2 18  1  0  0  0  0
  2 19  1  0  0  0  0
  3  4  1  0  0  0  0
  3 14  1  0  0  0  0
  4  5  2  0  0  0  0
  4 20  1  0  0  0  0
  5  6  1  0  0  0  0
  5 13  1  0  0  0  0
  6  7  1  0  0  0  0
  6 21  1  0  0  0  0
  7  8  2  0  0  0  0
  7  9  1  0  0  0  0
  9 10  1  0  0  0  0
  9 12  1  0  0  0  0
  9 22  1  0  0  0  0
 10 11  1  0  0  0  0
 10 23  1  0  0  0  0
 10 24  1  0  0  0  0
 11 12  1  0  0  0  0
 11 25  1  0  0  0  0
 11 26  1  0  0  0  0
 12 27  1  0  0  0  0
 12 28  1  0  0  0  0
 13 14  2  0  0  0  0
 13 29  1  0  0  0  0
M  END
$$$$
