MD_3_clus1
  MOE2019           3D

 26 26  0  0  1  0  0  0  0  0999 V2000
  -17.8998   15.8203   26.7614 C   0  0  0  0  0  0  0  0  0  0  0  0
  -18.2266   14.4271   26.0273 C   0  0  3  0  0  0  0  0  0  0  0  0
  -17.0328   13.8129   25.3662 C   0  0  0  0  0  0  0  0  0  0  0  0
  -17.1344   12.3888   25.4089 O   0  0  0  0  0  0  0  0  0  0  0  0
  -18.9210   13.5039   26.9662 N   0  0  0  0  0  0  0  0  0  0  0  0
  -18.3944   13.2935   28.3025 C   0  0  0  0  0  0  0  0  0  0  0  0
  -20.2558   13.1735   26.7201 C   0  0  0  0  0  0  0  0  0  0  0  0
  -20.3748   12.3459   25.7054 N   0  0  0  0  0  0  0  0  0  0  0  0
  -21.6448   11.9615   25.4106 C   0  0  0  0  0  0  0  0  0  0  0  0
  -22.7176   12.2813   26.1483 C   0  0  0  0  0  0  0  0  0  0  0  0
  -22.5758   13.1720   27.2485 C   0  0  0  0  0  0  0  0  0  0  0  0
  -21.2642   13.6344   27.4568 C   0  0  0  0  0  0  0  0  0  0  0  0
  -21.0264   14.3026   28.5943 F   0  0  0  0  0  0  0  0  0  0  0  0
  -17.1064   15.7258   27.5055 H   0  0  0  0  0  0  0  0  0  0  0  0
  -17.4565   16.5278   26.0581 H   0  0  0  0  0  0  0  0  0  0  0  0
  -18.7320   16.2967   27.2842 H   0  0  0  0  0  0  0  0  0  0  0  0
  -18.8720   14.7035   25.1899 H   0  0  0  0  0  0  0  0  0  0  0  0
  -16.7754   14.1124   24.3474 H   0  0  0  0  0  0  0  0  0  0  0  0
  -16.1358   14.0698   25.9353 H   0  0  0  0  0  0  0  0  0  0  0  0
  -17.6791   12.2558   26.2053 H   0  0  0  0  0  0  0  0  0  0  0  0
  -17.3266   13.0660   28.2415 H   0  0  0  0  0  0  0  0  0  0  0  0
  -18.6062   14.1453   28.9541 H   0  0  0  0  0  0  0  0  0  0  0  0
  -18.8783   12.3831   28.6645 H   0  0  0  0  0  0  0  0  0  0  0  0
  -21.7771   11.2217   24.6240 H   0  0  0  0  0  0  0  0  0  0  0  0
  -23.6702   11.7952   25.9541 H   0  0  0  0  0  0  0  0  0  0  0  0
  -23.4007   13.4689   27.8913 H   0  0  0  0  0  0  0  0  0  0  0  0
  1  2  1  0  0  0  0
  1 14  1  0  0  0  0
  1 15  1  0  0  0  0
  1 16  1  0  0  0  0
  2  3  1  0  0  0  0
  2  5  1  0  0  0  0
  2 17  1  0  0  0  0
  3  4  1  0  0  0  0
  3 18  1  0  0  0  0
  3 19  1  0  0  0  0
  4 20  1  0  0  0  0
  5  6  1  0  0  0  0
  5  7  1  0  0  0  0
  6 21  1  0  0  0  0
  6 22  1  0  0  0  0
  6 23  1  0  0  0  0
  7  8  1  0  0  0  0
  7 12  2  0  0  0  0
  8  9  2  0  0  0  0
  9 10  1  0  0  0  0
  9 24  1  0  0  0  0
 10 11  2  0  0  0  0
 10 25  1  0  0  0  0
 11 12  1  0  0  0  0
 11 26  1  0  0  0  0
 12 13  1  0  0  0  0
M  END
$$$$
