MD_2_clus5
  MOE2019           3D

 20 20  0  0  0  0  0  0  0  0999 V2000
  -16.3800   10.6111   25.1634 C   0  0  0  0  0  0  0  0  0  0  0  0
  -16.6530   11.9518   25.8123 C   0  0  0  0  0  0  0  0  0  0  0  0
  -16.4806   12.1266   27.1881 C   0  0  0  0  0  0  0  0  0  0  0  0
  -16.7578   13.3373   27.7532 C   0  0  0  0  0  0  0  0  0  0  0  0
  -16.5647   13.3959   29.0669 F   0  0  0  0  0  0  0  0  0  0  0  0
  -17.3470   14.3317   26.9897 C   0  0  0  0  0  0  0  0  0  0  0  0
  -17.5656   14.1604   25.6524 C   0  0  0  0  0  0  0  0  0  0  0  0
  -17.1827   12.9594   25.0558 C   0  0  0  0  0  0  0  0  0  0  0  0
  -18.4875   15.3853   24.7200 S   0  0  0  0  0  0  0  0  0  0  0  0
  -19.4035   14.8492   23.7352 O   0  0  0  0  0  0  0  0  0  0  0  0
  -18.4765   16.7610   25.2702 O   0  0  0  0  0  0  0  0  0  0  0  0
  -17.5225   15.5743   23.5411 N   0  0  0  0  0  0  0  0  0  0  0  0
  -15.3972   10.2726   25.4971 H   0  0  0  0  0  0  0  0  0  0  0  0
  -17.1251    9.8580   25.4296 H   0  0  0  0  0  0  0  0  0  0  0  0
  -16.3218   10.6365   24.0726 H   0  0  0  0  0  0  0  0  0  0  0  0
  -15.9766   11.3189   27.7129 H   0  0  0  0  0  0  0  0  0  0  0  0
  -17.5420   15.2729   27.4990 H   0  0  0  0  0  0  0  0  0  0  0  0
  -17.2570   12.7625   23.9892 H   0  0  0  0  0  0  0  0  0  0  0  0
  -18.2558   15.3000   22.8909 H   0  0  0  0  0  0  0  0  0  0  0  0
  -17.6929   16.5780   23.5658 H   0  0  0  0  0  0  0  0  0  0  0  0
  1  2  1  0  0  0  0
  1 13  1  0  0  0  0
  1 14  1  0  0  0  0
  1 15  1  0  0  0  0
  2  3  1  0  0  0  0
  2  8  2  0  0  0  0
  3  4  2  0  0  0  0
  3 16  1  0  0  0  0
  4  5  1  0  0  0  0
  4  6  1  0  0  0  0
  6  7  2  0  0  0  0
  6 17  1  0  0  0  0
  7  8  1  0  0  0  0
  7  9  1  0  0  0  0
  8 18  1  0  0  0  0
  9 10  2  0  0  0  0
  9 11  2  0  0  0  0
  9 12  1  0  0  0  0
 12 19  1  0  0  0  0
 12 20  1  0  0  0  0
M  END
$$$$
