MD_3_clus3
  MOE2019           3D

 19 19  0  0  0  0  0  0  0  0999 V2000
  -17.3078   12.8776   28.2597 C   0  0  0  0  0  0  0  0  0  0  0  0
  -18.6416   13.1639   28.8360 N   0  0  0  0  0  0  0  0  0  0  0  0
  -19.0461   12.0787   29.7222 C   0  0  0  0  0  0  0  0  0  0  0  0
  -19.3118   14.3283   28.7458 C   0  0  0  0  0  0  0  0  0  0  0  0
  -20.3388   14.4021   29.3766 O   0  0  0  0  0  0  0  0  0  0  0  0
  -18.8314   15.4805   27.9691 C   0  0  0  0  0  0  0  0  0  0  0  0
  -17.8941   15.5217   26.8997 C   0  0  0  0  0  0  0  0  0  0  0  0
  -17.7170   16.7831   26.5138 N   0  0  0  0  0  0  0  0  0  0  0  0
  -18.4759   17.5443   27.2757 N   0  0  0  0  0  0  0  0  0  0  0  0
  -19.3556   16.7439   28.0730 C   0  0  0  0  0  0  0  0  0  0  0  0
  -17.4845   12.6693   27.2009 H   0  0  0  0  0  0  0  0  0  0  0  0
  -16.7560   13.8077   28.4219 H   0  0  0  0  0  0  0  0  0  0  0  0
  -16.7788   12.0094   28.6596 H   0  0  0  0  0  0  0  0  0  0  0  0
  -20.1392   12.0529   29.7093 H   0  0  0  0  0  0  0  0  0  0  0  0
  -18.9985   12.3885   30.7684 H   0  0  0  0  0  0  0  0  0  0  0  0
  -18.6105   11.1001   29.5027 H   0  0  0  0  0  0  0  0  0  0  0  0
  -17.4129   14.7385   26.3270 H   0  0  0  0  0  0  0  0  0  0  0  0
  -18.4501   18.5443   27.1320 H   0  0  0  0  0  0  0  0  0  0  0  0
  -20.0807   17.1411   28.7735 H   0  0  0  0  0  0  0  0  0  0  0  0
  1  2  1  0  0  0  0
  1 11  1  0  0  0  0
  1 12  1  0  0  0  0
  1 13  1  0  0  0  0
  2  3  1  0  0  0  0
  2  4  1  0  0  0  0
  3 14  1  0  0  0  0
  3 15  1  0  0  0  0
  3 16  1  0  0  0  0
  4  5  2  0  0  0  0
  4  6  1  0  0  0  0
  6  7  1  0  0  0  0
  6 10  2  0  0  0  0
  7  8  2  0  0  0  0
  7 17  1  0  0  0  0
  8  9  1  0  0  0  0
  9 10  1  0  0  0  0
  9 18  1  0  0  0  0
 10 19  1  0  0  0  0
M  END
$$$$
