MD_3_clus5
  MOE2019           3D

 29 30  0  0  0  0  0  0  0  0999 V2000
  -16.8272   12.5994   27.8083 C   0  0  0  0  0  0  0  0  0  0  0  0
  -17.1056   13.6263   26.7976 N   0  0  0  0  0  0  0  0  0  0  0  0
  -18.3403   14.1460   26.8430 C   0  0  0  0  0  0  0  0  0  0  0  0
  -19.0580   14.1857   27.8083 O   0  0  0  0  0  0  0  0  0  0  0  0
  -18.6739   14.8892   25.5723 C   0  0  0  0  0  0  0  0  0  0  0  0
  -19.1574   14.0890   24.3712 C   0  0  0  0  0  0  0  0  0  0  0  0
  -18.0815   13.0803   23.9200 C   0  0  0  0  0  0  0  0  0  0  0  0
  -16.9476   13.4223   23.1263 C   0  0  0  0  0  0  0  0  0  0  0  0
  -16.0097   12.4352   22.6850 C   0  0  0  0  0  0  0  0  0  0  0  0
  -16.1765   11.0770   23.0384 C   0  0  0  0  0  0  0  0  0  0  0  0
  -17.3406   10.7589   23.8478 C   0  0  0  0  0  0  0  0  0  0  0  0
  -18.1593   11.7492   24.3460 C   0  0  0  0  0  0  0  0  0  0  0  0
  -19.2109   11.3329   25.0543 F   0  0  0  0  0  0  0  0  0  0  0  0
  -19.1546   16.2751   25.6128 C   0  0  0  0  0  0  0  0  0  0  0  0
  -17.7261   16.0441   25.1827 C   0  0  0  0  0  0  0  0  0  0  0  0
  -17.5424   11.8000   27.5966 H   0  0  0  0  0  0  0  0  0  0  0  0
  -15.8824   12.1116   27.5543 H   0  0  0  0  0  0  0  0  0  0  0  0
  -16.8831   12.9172   28.8523 H   0  0  0  0  0  0  0  0  0  0  0  0
  -16.4232   13.7732   26.0695 H   0  0  0  0  0  0  0  0  0  0  0  0
  -20.1253   13.6012   24.5084 H   0  0  0  0  0  0  0  0  0  0  0  0
  -19.2311   14.7467   23.5025 H   0  0  0  0  0  0  0  0  0  0  0  0
  -16.8652   14.4191   22.7010 H   0  0  0  0  0  0  0  0  0  0  0  0
  -15.1887   12.7402   22.0416 H   0  0  0  0  0  0  0  0  0  0  0  0
  -15.6776   10.2118   22.6090 H   0  0  0  0  0  0  0  0  0  0  0  0
  -17.4609    9.7039   24.0809 H   0  0  0  0  0  0  0  0  0  0  0  0
  -19.9048   16.6026   24.8983 H   0  0  0  0  0  0  0  0  0  0  0  0
  -19.4153   16.6961   26.5802 H   0  0  0  0  0  0  0  0  0  0  0  0
  -16.9073   16.3426   25.8302 H   0  0  0  0  0  0  0  0  0  0  0  0
  -17.5028   16.1549   24.1258 H   0  0  0  0  0  0  0  0  0  0  0  0
  1  2  1  0  0  0  0
  1 16  1  0  0  0  0
  1 17  1  0  0  0  0
  1 18  1  0  0  0  0
  2  3  1  0  0  0  0
  2 19  1  0  0  0  0
  3  4  2  0  0  0  0
  3  5  1  0  0  0  0
  5  6  1  0  0  0  0
  5 14  1  0  0  0  0
  5 15  1  0  0  0  0
  6  7  1  0  0  0  0
  6 20  1  0  0  0  0
  6 21  1  0  0  0  0
  7  8  1  0  0  0  0
  7 12  2  0  0  0  0
  8  9  2  0  0  0  0
  8 22  1  0  0  0  0
  9 10  1  0  0  0  0
  9 23  1  0  0  0  0
 10 11  2  0  0  0  0
 10 24  1  0  0  0  0
 11 12  1  0  0  0  0
 11 25  1  0  0  0  0
 12 13  1  0  0  0  0
 14 15  1  0  0  0  0
 14 26  1  0  0  0  0
 14 27  1  0  0  0  0
 15 28  1  0  0  0  0
 15 29  1  0  0  0  0
M  END
$$$$
