MD_1_clus2
  MOE2019           3D

 23 24  0  0  1  0  0  0  0  0999 V2000
  -17.5028   11.6948   28.4173 C   0  0  0  0  0  0  0  0  0  0  0  0
  -17.8107   12.3662   27.2077 N   0  0  0  0  0  0  0  0  0  0  0  0
  -18.1757   11.7014   26.0121 N   0  0  0  0  0  0  0  0  0  0  0  0
  -18.3166   12.6664   25.1206 N   0  0  0  0  0  0  0  0  0  0  0  0
  -18.1063   13.8977   25.7161 C   0  0  0  0  0  0  0  0  0  0  0  0
  -18.1448   15.2721   25.1462 C   0  0  0  0  0  0  0  0  0  0  0  0
  -18.2748   16.3972   26.2028 C   0  0  0  0  0  0  0  0  0  0  0  0
  -17.4016   16.1560   27.4308 C   0  0  3  0  0  0  0  0  0  0  0  0
  -17.6034   14.7017   28.0229 C   0  0  0  0  0  0  0  0  0  0  0  0
  -17.6665   13.6654   26.9910 C   0  0  0  0  0  0  0  0  0  0  0  0
  -17.6203   17.2145   28.4707 C   0  0  0  0  0  0  0  0  0  0  0  0
  -18.7118   17.3273   28.9411 O   0  0  0  0  0  0  0  0  0  0  0  0
  -16.7194   18.0388   28.6725 O   0  5  0  0  0  0  0  0  0  0  0  0
  -16.4978   11.9418   28.7678 H   0  0  0  0  0  0  0  0  0  0  0  0
  -18.2934   12.0508   29.0826 H   0  0  0  0  0  0  0  0  0  0  0  0
  -17.6530   10.6140   28.3532 H   0  0  0  0  0  0  0  0  0  0  0  0
  -17.2913   15.4540   24.4900 H   0  0  0  0  0  0  0  0  0  0  0  0
  -18.9934   15.3621   24.4644 H   0  0  0  0  0  0  0  0  0  0  0  0
  -18.0599   17.3642   25.7424 H   0  0  0  0  0  0  0  0  0  0  0  0
  -19.3058   16.4848   26.5530 H   0  0  0  0  0  0  0  0  0  0  0  0
  -16.4078   16.3417   27.0175 H   0  0  0  0  0  0  0  0  0  0  0  0
  -16.8107   14.3293   28.6749 H   0  0  0  0  0  0  0  0  0  0  0  0
  -18.5001   14.5636   28.6309 H   0  0  0  0  0  0  0  0  0  0  0  0
  1  2  1  0  0  0  0
  1 14  1  0  0  0  0
  1 15  1  0  0  0  0
  1 16  1  0  0  0  0
  2  3  1  0  0  0  0
  2 10  1  0  0  0  0
  3  4  2  0  0  0  0
  4  5  1  0  0  0  0
  5  6  1  0  0  0  0
  5 10  2  0  0  0  0
  6  7  1  0  0  0  0
  6 17  1  0  0  0  0
  6 18  1  0  0  0  0
  7  8  1  0  0  0  0
  7 19  1  0  0  0  0
  7 20  1  0  0  0  0
  8  9  1  0  0  0  0
  8 11  1  0  0  0  0
  8 21  1  0  0  0  0
  9 10  1  0  0  0  0
  9 22  1  0  0  0  0
  9 23  1  0  0  0  0
 11 12  2  0  0  0  0
 11 13  1  0  0  0  0
M  CHG  1  13  -1
M  END
$$$$
