MD_3_clus2
  MOE2019           3D

 30 31  0  0  0  0  0  0  0  0999 V2000
  -13.5049   18.0501   24.8311 N   0  0  0  0  0  0  0  0  0  0  0  0
  -13.0685   16.8401   24.6366 C   0  0  0  0  0  0  0  0  0  0  0  0
  -11.9148   16.6145   24.5510 O   0  0  0  0  0  0  0  0  0  0  0  0
  -14.0178   15.8556   24.7185 N   0  0  0  0  0  0  0  0  0  0  0  0
  -13.6807   14.4686   24.3501 C   0  0  0  0  0  0  0  0  0  0  0  0
  -14.8443   13.7516   23.6113 C   0  0  0  0  0  0  0  0  0  0  0  0
  -16.0602   13.7015   24.4721 N   0  0  0  0  0  0  0  0  0  0  0  0
  -16.0753   14.7114   25.5902 C   0  0  0  0  0  0  0  0  0  0  0  0
  -15.3541   16.0520   25.3121 C   0  0  0  0  0  0  0  0  0  0  0  0
  -17.0376   12.8434   24.2204 C   0  0  0  0  0  0  0  0  0  0  0  0
  -17.3621   12.5764   22.8955 C   0  0  0  0  0  0  0  0  0  0  0  0
  -18.6028   12.0507   22.6193 C   0  0  0  0  0  0  0  0  0  0  0  0
  -19.5603   11.7747   23.5801 C   0  0  0  0  0  0  0  0  0  0  0  0
  -20.7866   11.3171   23.3292 F   0  0  0  0  0  0  0  0  0  0  0  0
  -19.2074   11.9801   24.9256 C   0  0  0  0  0  0  0  0  0  0  0  0
  -17.9428   12.5326   25.2271 C   0  0  0  0  0  0  0  0  0  0  0  0
  -12.9266   18.8750   24.7716 H   0  0  0  0  0  0  0  0  0  0  0  0
  -14.5094   18.1411   24.8147 H   0  0  0  0  0  0  0  0  0  0  0  0
  -12.7555   14.4039   23.7723 H   0  0  0  0  0  0  0  0  0  0  0  0
  -13.4694   13.8458   25.2235 H   0  0  0  0  0  0  0  0  0  0  0  0
  -14.9716   14.3618   22.7133 H   0  0  0  0  0  0  0  0  0  0  0  0
  -14.5083   12.7529   23.3215 H   0  0  0  0  0  0  0  0  0  0  0  0
  -17.1132   14.9362   25.8493 H   0  0  0  0  0  0  0  0  0  0  0  0
  -15.6597   14.3405   26.5304 H   0  0  0  0  0  0  0  0  0  0  0  0
  -15.2027   16.5735   26.2601 H   0  0  0  0  0  0  0  0  0  0  0  0
  -15.9742   16.6473   24.6386 H   0  0  0  0  0  0  0  0  0  0  0  0
  -16.7022   12.8640   22.0808 H   0  0  0  0  0  0  0  0  0  0  0  0
  -18.9731   12.0395   21.5973 H   0  0  0  0  0  0  0  0  0  0  0  0
  -19.9075   11.6709   25.6973 H   0  0  0  0  0  0  0  0  0  0  0  0
  -17.9212   12.8698   26.2602 H   0  0  0  0  0  0  0  0  0  0  0  0
  1  2  1  0  0  0  0
  1 17  1  0  0  0  0
  1 18  1  0  0  0  0
  2  3  2  0  0  0  0
  2  4  1  0  0  0  0
  4  5  1  0  0  0  0
  4  9  1  0  0  0  0
  5  6  1  0  0  0  0
  5 19  1  0  0  0  0
  5 20  1  0  0  0  0
  6  7  1  0  0  0  0
  6 21  1  0  0  0  0
  6 22  1  0  0  0  0
  7  8  1  0  0  0  0
  7 10  1  0  0  0  0
  8  9  1  0  0  0  0
  8 23  1  0  0  0  0
  8 24  1  0  0  0  0
  9 25  1  0  0  0  0
  9 26  1  0  0  0  0
 10 11  1  0  0  0  0
 10 16  2  0  0  0  0
 11 12  2  0  0  0  0
 11 27  1  0  0  0  0
 12 13  1  0  0  0  0
 12 28  1  0  0  0  0
 13 14  1  0  0  0  0
 13 15  2  0  0  0  0
 15 16  1  0  0  0  0
 15 29  1  0  0  0  0
 16 30  1  0  0  0  0
M  END
$$$$
