MD_2_clus3
  MOE2019           3D

 19 19  0  0  0  0  0  0  0  0999 V2000
  -23.7255   13.7255   30.0692 C   0  0  0  0  0  0  0  0  0  0  0  0
  -23.1825   12.7995   29.0527 N   0  0  0  0  0  0  0  0  0  0  0  0
  -22.0129   12.0606   29.5928 C   0  0  0  0  0  0  0  0  0  0  0  0
  -23.8627   12.5087   27.8750 C   0  0  0  0  0  0  0  0  0  0  0  0
  -25.0021   12.9187   27.7901 O   0  0  0  0  0  0  0  0  0  0  0  0
  -23.1025   11.8773   26.8148 C   0  0  0  0  0  0  0  0  0  0  0  0
  -21.7098   11.6793   26.6752 C   0  0  0  0  0  0  0  0  0  0  0  0
  -21.4649   11.2150   25.4661 N   0  0  0  0  0  0  0  0  0  0  0  0
  -22.6563   11.0068   24.8917 N   0  0  0  0  0  0  0  0  0  0  0  0
  -23.6723   11.5227   25.5813 C   0  0  0  0  0  0  0  0  0  0  0  0
  -23.0017   14.5324   30.2113 H   0  0  0  0  0  0  0  0  0  0  0  0
  -24.7384   14.0960   29.8909 H   0  0  0  0  0  0  0  0  0  0  0  0
  -23.7933   13.2295   31.0410 H   0  0  0  0  0  0  0  0  0  0  0  0
  -22.1209   11.0506   29.1907 H   0  0  0  0  0  0  0  0  0  0  0  0
  -21.9821   12.0105   30.6841 H   0  0  0  0  0  0  0  0  0  0  0  0
  -21.1280   12.5570   29.1856 H   0  0  0  0  0  0  0  0  0  0  0  0
  -20.8603   11.7493   27.3434 H   0  0  0  0  0  0  0  0  0  0  0  0
  -22.6938   10.4173   24.0708 H   0  0  0  0  0  0  0  0  0  0  0  0
  -24.6844   11.3561   25.2326 H   0  0  0  0  0  0  0  0  0  0  0  0
  1  2  1  0  0  0  0
  1 11  1  0  0  0  0
  1 12  1  0  0  0  0
  1 13  1  0  0  0  0
  2  3  1  0  0  0  0
  2  4  1  0  0  0  0
  3 14  1  0  0  0  0
  3 15  1  0  0  0  0
  3 16  1  0  0  0  0
  4  5  2  0  0  0  0
  4  6  1  0  0  0  0
  6  7  1  0  0  0  0
  6 10  2  0  0  0  0
  7  8  2  0  0  0  0
  7 17  1  0  0  0  0
  8  9  1  0  0  0  0
  9 10  1  0  0  0  0
  9 18  1  0  0  0  0
 10 19  1  0  0  0  0
M  END
$$$$
