MD_1_clus0
  MOE2019           3D

 20 20  0  0  0  0  0  0  0  0999 V2000
  -19.8637   12.7132   26.6880 C   0  0  0  0  0  0  0  0  0  0  0  0
  -21.3476   12.6627   26.9404 C   0  0  0  0  0  0  0  0  0  0  0  0
  -21.8471   13.2589   28.0688 C   0  0  0  0  0  0  0  0  0  0  0  0
  -23.3082   13.2639   28.3320 C   0  0  0  0  0  0  0  0  0  0  0  0
  -24.1191   12.7344   27.4047 C   0  0  0  0  0  0  0  0  0  0  0  0
  -25.4898   12.7247   27.5335 N   0  0  0  0  0  0  0  0  0  0  0  0
  -23.6273   12.0933   26.1841 C   0  0  0  0  0  0  0  0  0  0  0  0
  -24.3178   11.5099   25.4136 O   0  0  0  0  0  0  0  0  0  0  0  0
  -22.2392   12.0636   26.0363 N   0  0  0  0  0  0  0  0  0  0  0  0
  -21.6447   11.2790   24.8475 C   0  0  0  0  0  0  0  0  0  0  0  0
  -19.6550   13.4954   25.9565 H   0  0  0  0  0  0  0  0  0  0  0  0
  -19.2482   12.9549   27.5578 H   0  0  0  0  0  0  0  0  0  0  0  0
  -19.5250   11.7184   26.3923 H   0  0  0  0  0  0  0  0  0  0  0  0
  -21.1727   13.7062   28.7899 H   0  0  0  0  0  0  0  0  0  0  0  0
  -23.6297   13.8065   29.2141 H   0  0  0  0  0  0  0  0  0  0  0  0
  -25.9346   12.9282   28.4219 H   0  0  0  0  0  0  0  0  0  0  0  0
  -25.9390   12.0330   26.9433 H   0  0  0  0  0  0  0  0  0  0  0  0
  -21.2259   10.3273   25.1840 H   0  0  0  0  0  0  0  0  0  0  0  0
  -22.4941   10.9991   24.2189 H   0  0  0  0  0  0  0  0  0  0  0  0
  -20.9629   11.9084   24.2694 H   0  0  0  0  0  0  0  0  0  0  0  0
  1  2  1  0  0  0  0
  1 11  1  0  0  0  0
  1 12  1  0  0  0  0
  1 13  1  0  0  0  0
  2  3  2  0  0  0  0
  2  9  1  0  0  0  0
  3  4  1  0  0  0  0
  3 14  1  0  0  0  0
  4  5  2  0  0  0  0
  4 15  1  0  0  0  0
  5  6  1  0  0  0  0
  5  7  1  0  0  0  0
  6 16  1  0  0  0  0
  6 17  1  0  0  0  0
  7  8  2  0  0  0  0
  7  9  1  0  0  0  0
  9 10  1  0  0  0  0
 10 18  1  0  0  0  0
 10 19  1  0  0  0  0
 10 20  1  0  0  0  0
M  END
$$$$
