MD_1_clus0
  MOE2019           3D

 27 28  0  0  0  0  0  0  0  0999 V2000
  -24.1821   14.9741   30.4158 C   0  0  0  0  0  0  0  0  0  0  0  0
  -24.8343   14.5302   29.2097 C   0  0  0  0  0  0  0  0  0  0  0  0
  -25.7296   15.1705   28.3728 N   0  0  0  0  0  0  0  0  0  0  0  0
  -25.9659   14.3781   27.2794 N   0  0  0  0  0  0  0  0  0  0  0  0
  -25.3560   13.1834   27.4566 C   0  0  0  0  0  0  0  0  0  0  0  0
  -24.6024   13.3174   28.6092 C   0  0  0  0  0  0  0  0  0  0  0  0
  -23.6756   12.3078   29.1322 C   0  0  0  0  0  0  0  0  0  0  0  0
  -24.0481   12.0330   30.4770 N   0  0  0  0  0  0  0  0  0  0  0  0
  -24.1537   10.7672   30.9723 C   0  0  0  0  0  0  0  0  0  0  0  0
  -23.2998    9.7842   30.6363 C   0  0  0  0  0  0  0  0  0  0  0  0
  -23.4046    8.4907   31.1827 C   0  0  0  0  0  0  0  0  0  0  0  0
  -24.2488    8.2301   32.2385 C   0  0  0  0  0  0  0  0  0  0  0  0
  -25.1259    9.2194   32.6489 C   0  0  0  0  0  0  0  0  0  0  0  0
  -25.0410   10.4618   32.0135 C   0  0  0  0  0  0  0  0  0  0  0  0
  -26.0212   11.3377   32.2816 F   0  0  0  0  0  0  0  0  0  0  0  0
  -24.4438   15.9888   30.7226 H   0  0  0  0  0  0  0  0  0  0  0  0
  -24.5500   14.4124   31.2764 H   0  0  0  0  0  0  0  0  0  0  0  0
  -23.1025   14.8175   30.3736 H   0  0  0  0  0  0  0  0  0  0  0  0
  -26.2923   15.9975   28.5155 H   0  0  0  0  0  0  0  0  0  0  0  0
  -25.3990   12.4081   26.7017 H   0  0  0  0  0  0  0  0  0  0  0  0
  -23.8793   11.4069   28.5473 H   0  0  0  0  0  0  0  0  0  0  0  0
  -22.6355   12.6429   29.1131 H   0  0  0  0  0  0  0  0  0  0  0  0
  -24.8047   12.6918   30.6251 H   0  0  0  0  0  0  0  0  0  0  0  0
  -22.5401    9.9359   29.8741 H   0  0  0  0  0  0  0  0  0  0  0  0
  -22.8224    7.6847   30.7446 H   0  0  0  0  0  0  0  0  0  0  0  0
  -24.2977    7.2259   32.6531 H   0  0  0  0  0  0  0  0  0  0  0  0
  -25.9267    8.9948   33.3488 H   0  0  0  0  0  0  0  0  0  0  0  0
  1  2  1  0  0  0  0
  1 16  1  0  0  0  0
  1 17  1  0  0  0  0
  1 18  1  0  0  0  0
  2  3  1  0  0  0  0
  2  6  2  0  0  0  0
  3  4  1  0  0  0  0
  3 19  1  0  0  0  0
  4  5  2  0  0  0  0
  5  6  1  0  0  0  0
  5 20  1  0  0  0  0
  6  7  1  0  0  0  0
  7  8  1  0  0  0  0
  7 21  1  0  0  0  0
  7 22  1  0  0  0  0
  8  9  1  0  0  0  0
  8 23  1  0  0  0  0
  9 10  1  0  0  0  0
  9 14  2  0  0  0  0
 10 11  2  0  0  0  0
 10 24  1  0  0  0  0
 11 12  1  0  0  0  0
 11 25  1  0  0  0  0
 12 13  2  0  0  0  0
 12 26  1  0  0  0  0
 13 14  1  0  0  0  0
 13 27  1  0  0  0  0
 14 15  1  0  0  0  0
M  END
$$$$
