MD_1_clus4
  MOE2019           3D

 23 24  0  0  0  0  0  0  0  0999 V2000
  -20.1825   18.1968   26.7454 O   0  0  0  0  0  0  0  0  0  0  0  0
  -19.3185   17.3990   27.0501 C   0  0  0  0  0  0  0  0  0  0  0  0
  -19.6630   16.1003   26.9882 N   0  0  0  0  0  0  0  0  0  0  0  0
  -18.8476   14.8937   27.1865 C   0  0  0  0  0  0  0  0  0  0  0  0
  -19.7210   13.7036   26.9425 C   0  0  0  0  0  0  0  0  0  0  0  0
  -20.9405   14.1742   26.1706 C   0  0  0  0  0  0  0  0  0  0  0  0
  -21.0383   15.6549   26.6753 C   0  0  0  0  0  0  0  0  0  0  0  0
  -17.9779   17.8663   27.4557 C   0  0  0  0  0  0  0  0  0  0  0  0
  -16.8498   17.0399   27.6821 C   0  0  0  0  0  0  0  0  0  0  0  0
  -15.8680   17.8844   28.0054 N   0  0  0  0  0  0  0  0  0  0  0  0
  -16.3836   19.1289   28.0220 N   0  0  0  0  0  0  0  0  0  0  0  0
  -17.6709   19.1858   27.6519 C   0  0  0  0  0  0  0  0  0  0  0  0
  -17.9920   14.7899   26.5141 H   0  0  0  0  0  0  0  0  0  0  0  0
  -18.5326   14.9369   28.2318 H   0  0  0  0  0  0  0  0  0  0  0  0
  -19.0774   12.9758   26.4442 H   0  0  0  0  0  0  0  0  0  0  0  0
  -20.1021   13.2113   27.8397 H   0  0  0  0  0  0  0  0  0  0  0  0
  -20.5879   14.2955   25.1449 H   0  0  0  0  0  0  0  0  0  0  0  0
  -21.7882   13.4999   26.3108 H   0  0  0  0  0  0  0  0  0  0  0  0
  -21.6587   15.7266   27.5724 H   0  0  0  0  0  0  0  0  0  0  0  0
  -21.5754   16.1703   25.8752 H   0  0  0  0  0  0  0  0  0  0  0  0
  -16.6508   15.9769   27.6296 H   0  0  0  0  0  0  0  0  0  0  0  0
  -15.8661   19.9443   28.3197 H   0  0  0  0  0  0  0  0  0  0  0  0
  -18.2543   20.0738   27.4443 H   0  0  0  0  0  0  0  0  0  0  0  0
  1  2  2  0  0  0  0
  2  3  1  0  0  0  0
  2  8  1  0  0  0  0
  3  4  1  0  0  0  0
  3  7  1  0  0  0  0
  4  5  1  0  0  0  0
  4 13  1  0  0  0  0
  4 14  1  0  0  0  0
  5  6  1  0  0  0  0
  5 15  1  0  0  0  0
  5 16  1  0  0  0  0
  6  7  1  0  0  0  0
  6 17  1  0  0  0  0
  6 18  1  0  0  0  0
  7 19  1  0  0  0  0
  7 20  1  0  0  0  0
  8  9  1  0  0  0  0
  8 12  2  0  0  0  0
  9 10  2  0  0  0  0
  9 21  1  0  0  0  0
 10 11  1  0  0  0  0
 11 12  1  0  0  0  0
 11 22  1  0  0  0  0
 12 23  1  0  0  0  0
M  END
$$$$
