MD_2_clus0
  MOE2019           3D

 28 29  0  0  0  0  0  0  0  0999 V2000
  -23.8805   12.8050   27.2086 C   0  0  0  0  0  0  0  0  0  0  0  0
  -23.6523   12.1357   28.4873 C   0  0  0  0  0  0  0  0  0  0  0  0
  -24.7112   11.9522   29.3163 N   0  0  0  0  0  0  0  0  0  0  0  0
  -24.0683   11.2595   30.3008 C   0  0  0  0  0  0  0  0  0  0  0  0
  -24.6075   10.9601   31.5230 C   0  0  0  0  0  0  0  0  0  0  0  0
  -23.7313   10.2859   32.3757 C   0  0  0  0  0  0  0  0  0  0  0  0
  -22.3713   10.0860   32.0765 C   0  0  0  0  0  0  0  0  0  0  0  0
  -21.8744   10.3968   30.8383 C   0  0  0  0  0  0  0  0  0  0  0  0
  -22.7773   11.0058   30.0025 C   0  0  0  0  0  0  0  0  0  0  0  0
  -22.5159   11.5157   28.8366 N   0  0  0  0  0  0  0  0  0  0  0  0
  -21.4382   11.0414   27.9178 C   0  0  0  0  0  0  0  0  0  0  0  0
  -20.4920   12.1282   27.6344 C   0  0  0  0  0  0  0  0  0  0  0  0
  -19.1867   11.5771   27.1579 C   0  0  0  0  0  0  0  0  0  0  0  0
  -19.0367   10.9146   26.1511 O   0  0  0  0  0  0  0  0  0  0  0  0
  -18.1250   12.0070   27.8242 N   0  0  0  0  0  0  0  0  0  0  0  0
  -23.0775   12.5844   26.5025 H   0  0  0  0  0  0  0  0  0  0  0  0
  -24.8851   12.4873   26.9213 H   0  0  0  0  0  0  0  0  0  0  0  0
  -23.9582   13.8698   27.4358 H   0  0  0  0  0  0  0  0  0  0  0  0
  -25.5947   11.2109   31.9037 H   0  0  0  0  0  0  0  0  0  0  0  0
  -24.0791   10.0944   33.3872 H   0  0  0  0  0  0  0  0  0  0  0  0
  -21.7262    9.5867   32.7954 H   0  0  0  0  0  0  0  0  0  0  0  0
  -20.8535   10.0538   30.6923 H   0  0  0  0  0  0  0  0  0  0  0  0
  -20.8942   10.2567   28.4499 H   0  0  0  0  0  0  0  0  0  0  0  0
  -21.7521   10.5568   26.9891 H   0  0  0  0  0  0  0  0  0  0  0  0
  -20.7061   12.8804   26.8727 H   0  0  0  0  0  0  0  0  0  0  0  0
  -20.1312   12.6148   28.5432 H   0  0  0  0  0  0  0  0  0  0  0  0
  -17.1940   11.8612   27.4611 H   0  0  0  0  0  0  0  0  0  0  0  0
  -18.1809   12.5485   28.6734 H   0  0  0  0  0  0  0  0  0  0  0  0
  1  2  1  0  0  0  0
  1 16  1  0  0  0  0
  1 17  1  0  0  0  0
  1 18  1  0  0  0  0
  2  3  2  0  0  0  0
  2 10  1  0  0  0  0
  3  4  1  0  0  0  0
  4  5  1  0  0  0  0
  4  9  2  0  0  0  0
  5  6  2  0  0  0  0
  5 19  1  0  0  0  0
  6  7  1  0  0  0  0
  6 20  1  0  0  0  0
  7  8  2  0  0  0  0
  7 21  1  0  0  0  0
  8  9  1  0  0  0  0
  8 22  1  0  0  0  0
  9 10  1  0  0  0  0
 10 11  1  0  0  0  0
 11 12  1  0  0  0  0
 11 23  1  0  0  0  0
 11 24  1  0  0  0  0
 12 13  1  0  0  0  0
 12 25  1  0  0  0  0
 12 26  1  0  0  0  0
 13 14  2  0  0  0  0
 13 15  1  0  0  0  0
 15 27  1  0  0  0  0
 15 28  1  0  0  0  0
M  END
$$$$
