MD_3_clus5
  MOE2019           3D

 23 24  0  0  0  0  0  0  0  0999 V2000
  -21.4824   13.1310   30.7759 C   0  0  0  0  0  0  0  0  0  0  0  0
  -21.2962   12.8157   29.2385 N   0  3  0  0  0  0  0  0  0  0  0  0
  -22.1074   13.6807   28.3338 C   0  0  0  0  0  0  0  0  0  0  0  0
  -21.8387   13.3330   26.8434 C   0  0  0  0  0  0  0  0  0  0  0  0
  -22.4257   12.3609   26.0858 N   0  0  0  0  0  0  0  0  0  0  0  0
  -21.7211   12.3497   24.8397 N   0  0  0  0  0  0  0  0  0  0  0  0
  -20.8633   13.4188   24.9026 C   0  0  0  0  0  0  0  0  0  0  0  0
  -19.7535   13.7352   24.0186 C   0  0  0  0  0  0  0  0  0  0  0  0
  -18.8949   14.6943   24.3897 C   0  0  0  0  0  0  0  0  0  0  0  0
  -19.0004   15.3579   25.6914 C   0  0  0  0  0  0  0  0  0  0  0  0
  -20.1254   15.1081   26.4855 C   0  0  0  0  0  0  0  0  0  0  0  0
  -21.0463   14.1347   26.0238 N   0  0  0  0  0  0  0  0  0  0  0  0
  -21.2000   14.1657   30.9758 H   0  0  0  0  0  0  0  0  0  0  0  0
  -22.4671   12.9239   31.1967 H   0  0  0  0  0  0  0  0  0  0  0  0
  -20.7950   12.4953   31.3352 H   0  0  0  0  0  0  0  0  0  0  0  0
  -20.3015   12.7772   28.9632 H   0  0  0  0  0  0  0  0  0  0  0  0
  -23.0774   13.3954   28.7427 H   0  0  0  0  0  0  0  0  0  0  0  0
  -21.8535   14.7282   28.5073 H   0  0  0  0  0  0  0  0  0  0  0  0
  -19.5688   13.3215   23.0323 H   0  0  0  0  0  0  0  0  0  0  0  0
  -18.0324   14.9673   23.7916 H   0  0  0  0  0  0  0  0  0  0  0  0
  -18.3353   16.1770   25.9444 H   0  0  0  0  0  0  0  0  0  0  0  0
  -20.4003   15.5499   27.4357 H   0  0  0  0  0  0  0  0  0  0  0  0
  -21.5090   11.8286   29.0190 H   0  0  0  0  0  0  0  0  0  0  0  0
  1  2  1  0  0  0  0
  1 13  1  0  0  0  0
  1 14  1  0  0  0  0
  1 15  1  0  0  0  0
  2  3  1  0  0  0  0
  2 16  1  0  0  0  0
  2 23  1  0  0  0  0
  3  4  1  0  0  0  0
  3 17  1  0  0  0  0
  3 18  1  0  0  0  0
  4  5  2  0  0  0  0
  4 12  1  0  0  0  0
  5  6  1  0  0  0  0
  6  7  2  0  0  0  0
  7  8  1  0  0  0  0
  7 12  1  0  0  0  0
  8  9  2  0  0  0  0
  8 19  1  0  0  0  0
  9 10  1  0  0  0  0
  9 20  1  0  0  0  0
 10 11  2  0  0  0  0
 10 21  1  0  0  0  0
 11 12  1  0  0  0  0
 11 22  1  0  0  0  0
M  CHG  1   2   1
M  END
$$$$
