MD_1_clus7
  MOE2019           3D

 31 32  0  0  0  0  0  0  0  0999 V2000
  -27.9254   10.5290   30.3743 C   0  0  0  0  0  0  0  0  0  0  0  0
  -26.3149   10.3515   30.2869 C   0  0  0  0  0  0  0  0  0  0  0  0
  -25.5879   11.5672   29.9498 N   0  0  0  0  0  0  0  0  0  0  0  0
  -24.7895   12.3089   30.7519 C   0  0  0  0  0  0  0  0  0  0  0  0
  -24.4757   13.3843   30.0743 C   0  0  0  0  0  0  0  0  0  0  0  0
  -23.6686   14.5692   30.5078 C   0  0  0  0  0  0  0  0  0  0  0  0
  -22.4743   14.6402   29.7507 N   0  0  0  0  0  0  0  0  0  0  0  0
  -22.1564   15.5548   28.8352 C   0  0  0  0  0  0  0  0  0  0  0  0
  -23.0108   16.3122   28.5001 O   0  0  0  0  0  0  0  0  0  0  0  0
  -20.7930   15.5307   28.2366 C   0  0  0  0  0  0  0  0  0  0  0  0
  -19.9473   14.4942   28.4464 C   0  0  0  0  0  0  0  0  0  0  0  0
  -18.7224   14.4509   27.7820 C   0  0  0  0  0  0  0  0  0  0  0  0
  -18.4165   15.3973   26.8471 C   0  0  0  0  0  0  0  0  0  0  0  0
  -19.2216   16.4461   26.6225 N   0  0  0  0  0  0  0  0  0  0  0  0
  -20.4090   16.5185   27.2533 C   0  0  0  0  0  0  0  0  0  0  0  0
  -25.1784   13.4389   28.8983 C   0  0  0  0  0  0  0  0  0  0  0  0
  -25.9338   12.3494   28.8564 N   0  0  0  0  0  0  0  0  0  0  0  0
  -28.1538   11.3493   31.0575 H   0  0  0  0  0  0  0  0  0  0  0  0
  -28.1320   10.8454   29.3499 H   0  0  0  0  0  0  0  0  0  0  0  0
  -28.5277    9.6440   30.5923 H   0  0  0  0  0  0  0  0  0  0  0  0
  -25.9224    9.9906   31.2414 H   0  0  0  0  0  0  0  0  0  0  0  0
  -26.1981    9.5519   29.5517 H   0  0  0  0  0  0  0  0  0  0  0  0
  -24.6055   11.9779   31.7669 H   0  0  0  0  0  0  0  0  0  0  0  0
  -24.2647   15.4824   30.4392 H   0  0  0  0  0  0  0  0  0  0  0  0
  -23.3168   14.3946   31.5282 H   0  0  0  0  0  0  0  0  0  0  0  0
  -21.7440   14.0437   30.1081 H   0  0  0  0  0  0  0  0  0  0  0  0
  -20.1563   13.7214   29.1806 H   0  0  0  0  0  0  0  0  0  0  0  0
  -18.1218   13.5468   27.8412 H   0  0  0  0  0  0  0  0  0  0  0  0
  -17.5453   15.2983   26.2028 H   0  0  0  0  0  0  0  0  0  0  0  0
  -21.0629   17.3010   26.8736 H   0  0  0  0  0  0  0  0  0  0  0  0
  -25.3427   14.2225   28.1690 H   0  0  0  0  0  0  0  0  0  0  0  0
  1  2  1  0  0  0  0
  1 18  1  0  0  0  0
  1 19  1  0  0  0  0
  1 20  1  0  0  0  0
  2  3  1  0  0  0  0
  2 21  1  0  0  0  0
  2 22  1  0  0  0  0
  3  4  1  0  0  0  0
  3 17  1  0  0  0  0
  4  5  2  0  0  0  0
  4 23  1  0  0  0  0
  5  6  1  0  0  0  0
  5 16  1  0  0  0  0
  6  7  1  0  0  0  0
  6 24  1  0  0  0  0
  6 25  1  0  0  0  0
  7  8  1  0  0  0  0
  7 26  1  0  0  0  0
  8  9  2  0  0  0  0
  8 10  1  0  0  0  0
 10 11  1  0  0  0  0
 10 15  2  0  0  0  0
 11 12  2  0  0  0  0
 11 27  1  0  0  0  0
 12 13  1  0  0  0  0
 12 28  1  0  0  0  0
 13 14  2  0  0  0  0
 13 29  1  0  0  0  0
 14 15  1  0  0  0  0
 15 30  1  0  0  0  0
 16 17  2  0  0  0  0
 16 31  1  0  0  0  0
M  END
$$$$
