MD_1_clus0
  MOE2019           3D

 29 30  0  0  0  0  0  0  0  0999 V2000
  -15.3682   21.6850   26.9979 N   0  0  0  0  0  0  0  0  0  0  0  0
  -16.4430   21.2619   26.3057 C   0  0  0  0  0  0  0  0  0  0  0  0
  -16.9338   22.0453   25.5210 O   0  0  0  0  0  0  0  0  0  0  0  0
  -17.0868   20.1821   26.7547 N   0  0  0  0  0  0  0  0  0  0  0  0
  -16.5361   19.2604   27.7403 C   0  0  0  0  0  0  0  0  0  0  0  0
  -16.9185   17.7628   27.4854 C   0  0  0  0  0  0  0  0  0  0  0  0
  -18.3604   17.5591   27.2675 N   0  0  0  0  0  0  0  0  0  0  0  0
  -19.2076   18.7884   27.1843 C   0  0  0  0  0  0  0  0  0  0  0  0
  -18.4731   19.9597   26.4244 C   0  0  0  0  0  0  0  0  0  0  0  0
  -18.9517   16.3313   27.3201 C   0  0  0  0  0  0  0  0  0  0  0  0
  -20.2132   16.2456   27.5138 O   0  0  0  0  0  0  0  0  0  0  0  0
  -18.1314   15.0893   27.0599 C   0  0  0  0  0  0  0  0  0  0  0  0
  -18.5522   13.7750   27.3847 C   0  0  0  0  0  0  0  0  0  0  0  0
  -17.5828   12.9291   26.7279 C   0  0  0  0  0  0  0  0  0  0  0  0
  -16.5260   13.7601   26.4145 C   0  0  0  0  0  0  0  0  0  0  0  0
  -16.8607   15.1151   26.4515 O   0  0  0  0  0  0  0  0  0  0  0  0
  -14.7932   22.4412   26.6591 H   0  0  0  0  0  0  0  0  0  0  0  0
  -15.1105   21.2228   27.8577 H   0  0  0  0  0  0  0  0  0  0  0  0
  -15.4481   19.3618   27.7735 H   0  0  0  0  0  0  0  0  0  0  0  0
  -16.9008   19.4797   28.7471 H   0  0  0  0  0  0  0  0  0  0  0  0
  -16.3235   17.5870   26.5852 H   0  0  0  0  0  0  0  0  0  0  0  0
  -16.5773   17.1747   28.3405 H   0  0  0  0  0  0  0  0  0  0  0  0
  -20.1681   18.5459   26.7228 H   0  0  0  0  0  0  0  0  0  0  0  0
  -19.4423   19.1842   28.1754 H   0  0  0  0  0  0  0  0  0  0  0  0
  -18.9956   20.8884   26.6657 H   0  0  0  0  0  0  0  0  0  0  0  0
  -18.4687   19.8796   25.3339 H   0  0  0  0  0  0  0  0  0  0  0  0
  -19.4480   13.4510   27.9049 H   0  0  0  0  0  0  0  0  0  0  0  0
  -17.7147   11.8530   26.6897 H   0  0  0  0  0  0  0  0  0  0  0  0
  -15.5530   13.5847   25.9726 H   0  0  0  0  0  0  0  0  0  0  0  0
  1  2  1  0  0  0  0
  1 17  1  0  0  0  0
  1 18  1  0  0  0  0
  2  3  2  0  0  0  0
  2  4  1  0  0  0  0
  4  5  1  0  0  0  0
  4  9  1  0  0  0  0
  5  6  1  0  0  0  0
  5 19  1  0  0  0  0
  5 20  1  0  0  0  0
  6  7  1  0  0  0  0
  6 21  1  0  0  0  0
  6 22  1  0  0  0  0
  7  8  1  0  0  0  0
  7 10  1  0  0  0  0
  8  9  1  0  0  0  0
  8 23  1  0  0  0  0
  8 24  1  0  0  0  0
  9 25  1  0  0  0  0
  9 26  1  0  0  0  0
 10 11  2  0  0  0  0
 10 12  1  0  0  0  0
 12 13  2  0  0  0  0
 12 16  1  0  0  0  0
 13 14  1  0  0  0  0
 13 27  1  0  0  0  0
 14 15  2  0  0  0  0
 14 28  1  0  0  0  0
 15 16  1  0  0  0  0
 15 29  1  0  0  0  0
M  END
$$$$
