MD_3_clus3
  MOE2019           3D

 23 23  0  0  0  0  0  0  0  0999 V2000
  -20.3375   10.9397   25.2958 C   0  0  0  0  0  0  0  0  0  0  0  0
  -19.2039   11.8129   25.5875 N   0  0  0  0  0  0  0  0  0  0  0  0
  -18.0381   11.8382   24.9339 C   0  0  0  0  0  0  0  0  0  0  0  0
  -17.6904   10.9248   23.9679 C   0  0  0  0  0  0  0  0  0  0  0  0
  -16.5216   11.0787   23.1764 C   0  0  0  0  0  0  0  0  0  0  0  0
  -15.7480   12.1731   23.3588 C   0  0  0  0  0  0  0  0  0  0  0  0
  -16.0506   13.0843   24.3709 C   0  0  0  0  0  0  0  0  0  0  0  0
  -17.1854   12.8932   25.1627 C   0  0  0  0  0  0  0  0  0  0  0  0
  -17.5186   14.1441   26.3876 S   0  0  0  0  0  0  0  0  0  0  0  0
  -16.5547   15.2564   26.2926 O   0  0  0  0  0  0  0  0  0  0  0  0
  -18.9934   14.3034   26.4694 O   0  0  0  0  0  0  0  0  0  0  0  0
  -17.2666   13.2253   27.8519 C   0  0  0  0  0  0  0  0  0  0  0  0
  -21.1110   10.9310   26.0678 H   0  0  0  0  0  0  0  0  0  0  0  0
  -20.8547   11.2810   24.3961 H   0  0  0  0  0  0  0  0  0  0  0  0
  -20.0421    9.8998   25.1333 H   0  0  0  0  0  0  0  0  0  0  0  0
  -19.5707   12.6730   25.9816 H   0  0  0  0  0  0  0  0  0  0  0  0
  -18.1446    9.9381   23.9169 H   0  0  0  0  0  0  0  0  0  0  0  0
  -16.1647   10.3148   22.4890 H   0  0  0  0  0  0  0  0  0  0  0  0
  -14.9444   12.3560   22.6499 H   0  0  0  0  0  0  0  0  0  0  0  0
  -15.4678   13.9894   24.5242 H   0  0  0  0  0  0  0  0  0  0  0  0
  -18.0083   12.4341   27.9867 H   0  0  0  0  0  0  0  0  0  0  0  0
  -16.2348   12.8632   27.8439 H   0  0  0  0  0  0  0  0  0  0  0  0
  -17.4031   14.0977   28.4965 H   0  0  0  0  0  0  0  0  0  0  0  0
  1  2  1  0  0  0  0
  1 13  1  0  0  0  0
  1 14  1  0  0  0  0
  1 15  1  0  0  0  0
  2  3  1  0  0  0  0
  2 16  1  0  0  0  0
  3  4  1  0  0  0  0
  3  8  2  0  0  0  0
  4  5  2  0  0  0  0
  4 17  1  0  0  0  0
  5  6  1  0  0  0  0
  5 18  1  0  0  0  0
  6  7  2  0  0  0  0
  6 19  1  0  0  0  0
  7  8  1  0  0  0  0
  7 20  1  0  0  0  0
  8  9  1  0  0  0  0
  9 10  2  0  0  0  0
  9 11  2  0  0  0  0
  9 12  1  0  0  0  0
 12 21  1  0  0  0  0
 12 22  1  0  0  0  0
 12 23  1  0  0  0  0
M  END
$$$$
