MD_3_clus0
  MOE2019           3D

 29 31  0  0  0  0  0  0  0  0999 V2000
  -20.4645   23.2685   25.5145 C   0  0  0  0  0  0  0  0  0  0  0  0
  -20.1766   21.8385   25.4208 O   0  0  0  0  0  0  0  0  0  0  0  0
  -21.1701   20.9116   25.8765 C   0  0  0  0  0  0  0  0  0  0  0  0
  -22.5242   21.2203   25.7316 C   0  0  0  0  0  0  0  0  0  0  0  0
  -23.4049   20.3424   26.4075 C   0  0  0  0  0  0  0  0  0  0  0  0
  -22.9519   19.1336   26.9823 C   0  0  0  0  0  0  0  0  0  0  0  0
  -23.7294   18.3275   27.7213 N   0  0  0  0  0  0  0  0  0  0  0  0
  -22.9265   17.2977   28.1496 C   0  0  0  0  0  0  0  0  0  0  0  0
  -23.3299   16.2003   28.7968 N   0  0  0  0  0  0  0  0  0  0  0  0
  -24.5658   15.6386   28.8434 C   0  0  0  0  0  0  0  0  0  0  0  0
  -25.5273   16.0485   28.2498 O   0  0  0  0  0  0  0  0  0  0  0  0
  -24.6589   14.4079   29.6115 C   0  0  0  0  0  0  0  0  0  0  0  0
  -23.8721   13.2383   29.0487 C   0  0  0  0  0  0  0  0  0  0  0  0
  -25.3573   13.1702   29.1805 C   0  0  0  0  0  0  0  0  0  0  0  0
  -21.2199   17.3196   27.7480 S   0  0  0  0  0  0  0  0  0  0  0  0
  -21.5882   18.8204   26.9204 C   0  0  0  0  0  0  0  0  0  0  0  0
  -20.6677   19.7146   26.4340 C   0  0  0  0  0  0  0  0  0  0  0  0
  -19.9026   23.8939   24.8152 H   0  0  0  0  0  0  0  0  0  0  0  0
  -21.5429   23.4414   25.4627 H   0  0  0  0  0  0  0  0  0  0  0  0
  -20.1320   23.6664   26.4763 H   0  0  0  0  0  0  0  0  0  0  0  0
  -23.0137   22.0449   25.2206 H   0  0  0  0  0  0  0  0  0  0  0  0
  -24.4749   20.5204   26.3405 H   0  0  0  0  0  0  0  0  0  0  0  0
  -22.6802   15.5199   29.1600 H   0  0  0  0  0  0  0  0  0  0  0  0
  -24.6796   14.5719   30.6850 H   0  0  0  0  0  0  0  0  0  0  0  0
  -23.4782   13.2187   28.0370 H   0  0  0  0  0  0  0  0  0  0  0  0
  -23.2387   12.7419   29.7785 H   0  0  0  0  0  0  0  0  0  0  0  0
  -25.7019   12.4504   29.9167 H   0  0  0  0  0  0  0  0  0  0  0  0
  -26.0732   13.3116   28.3765 H   0  0  0  0  0  0  0  0  0  0  0  0
  -19.6157   19.4442   26.4645 H   0  0  0  0  0  0  0  0  0  0  0  0
  1  2  1  0  0  0  0
  1 18  1  0  0  0  0
  1 19  1  0  0  0  0
  1 20  1  0  0  0  0
  2  3  1  0  0  0  0
  3  4  1  0  0  0  0
  3 17  2  0  0  0  0
  4  5  2  0  0  0  0
  4 21  1  0  0  0  0
  5  6  1  0  0  0  0
  5 22  1  0  0  0  0
  6  7  1  0  0  0  0
  6 16  2  0  0  0  0
  7  8  2  0  0  0  0
  8  9  1  0  0  0  0
  8 15  1  0  0  0  0
  9 10  1  0  0  0  0
  9 23  1  0  0  0  0
 10 11  2  0  0  0  0
 10 12  1  0  0  0  0
 12 13  1  0  0  0  0
 12 14  1  0  0  0  0
 12 24  1  0  0  0  0
 13 14  1  0  0  0  0
 13 25  1  0  0  0  0
 13 26  1  0  0  0  0
 14 27  1  0  0  0  0
 14 28  1  0  0  0  0
 15 16  1  0  0  0  0
 16 17  1  0  0  0  0
 17 29  1  0  0  0  0
M  END
$$$$
