MD_1_clus0
  MOE2019           3D

 29 30  0  0  1  0  0  0  0  0999 V2000
  -24.9299   11.9099   28.0656 C   0  0  0  0  0  0  0  0  0  0  0  0
  -24.3197   12.8944   27.0331 C   0  0  3  0  0  0  0  0  0  0  0  0
  -25.5080   13.2233   26.1527 O   0  0  0  0  0  0  0  0  0  0  0  0
  -23.0911   12.3390   26.2855 C   0  0  0  0  0  0  0  0  0  0  0  0
  -23.0065   11.2828   25.3387 C   0  0  0  0  0  0  0  0  0  0  0  0
  -21.7739   11.1106   24.9301 N   0  0  0  0  0  0  0  0  0  0  0  0
  -21.0453   12.1863   25.4322 N   0  0  0  0  0  0  0  0  0  0  0  0
  -21.8326   12.8875   26.3507 C   0  0  0  0  0  0  0  0  0  0  0  0
  -19.6039   12.1161   25.4966 C   0  0  0  0  0  0  0  0  0  0  0  0
  -18.8233   12.8610   26.6407 C   0  0  0  0  0  0  0  0  0  0  0  0
  -18.1754   14.1202   26.0182 C   0  0  0  0  0  0  0  0  0  0  0  0
  -18.0150   13.7734   24.4888 C   0  0  0  0  0  0  0  0  0  0  0  0
  -18.8768   12.4997   24.2142 C   0  0  0  0  0  0  0  0  0  0  0  0
  -25.3651   11.1169   27.4534 H   0  0  0  0  0  0  0  0  0  0  0  0
  -24.2009   11.3785   28.6809 H   0  0  0  0  0  0  0  0  0  0  0  0
  -25.6484   12.3515   28.7589 H   0  0  0  0  0  0  0  0  0  0  0  0
  -23.9978   13.7854   27.5791 H   0  0  0  0  0  0  0  0  0  0  0  0
  -26.1760   13.6055   26.7491 H   0  0  0  0  0  0  0  0  0  0  0  0
  -23.7503   10.5608   25.0262 H   0  0  0  0  0  0  0  0  0  0  0  0
  -21.4799   13.7985   26.8172 H   0  0  0  0  0  0  0  0  0  0  0  0
  -19.4177   11.0463   25.6249 H   0  0  0  0  0  0  0  0  0  0  0  0
  -19.5014   13.1820   27.4345 H   0  0  0  0  0  0  0  0  0  0  0  0
  -18.1167   12.1314   27.0424 H   0  0  0  0  0  0  0  0  0  0  0  0
  -18.9042   14.9329   26.0100 H   0  0  0  0  0  0  0  0  0  0  0  0
  -17.2997   14.4460   26.5837 H   0  0  0  0  0  0  0  0  0  0  0  0
  -18.4485   14.4870   23.7846 H   0  0  0  0  0  0  0  0  0  0  0  0
  -16.9314   13.6558   24.4235 H   0  0  0  0  0  0  0  0  0  0  0  0
  -18.2141   11.6800   23.9271 H   0  0  0  0  0  0  0  0  0  0  0  0
  -19.6953   12.6832   23.5162 H   0  0  0  0  0  0  0  0  0  0  0  0
  1  2  1  0  0  0  0
  1 14  1  0  0  0  0
  1 15  1  0  0  0  0
  1 16  1  0  0  0  0
  2  3  1  0  0  0  0
  2  4  1  0  0  0  0
  2 17  1  0  0  0  0
  3 18  1  0  0  0  0
  4  5  1  0  0  0  0
  4  8  2  0  0  0  0
  5  6  2  0  0  0  0
  5 19  1  0  0  0  0
  6  7  1  0  0  0  0
  7  8  1  0  0  0  0
  7  9  1  0  0  0  0
  8 20  1  0  0  0  0
  9 10  1  0  0  0  0
  9 13  1  0  0  0  0
  9 21  1  0  0  0  0
 10 11  1  0  0  0  0
 10 22  1  0  0  0  0
 10 23  1  0  0  0  0
 11 12  1  0  0  0  0
 11 24  1  0  0  0  0
 11 25  1  0  0  0  0
 12 13  1  0  0  0  0
 12 26  1  0  0  0  0
 12 27  1  0  0  0  0
 13 28  1  0  0  0  0
 13 29  1  0  0  0  0
M  END
$$$$
