MD_1_clus2
  MOE2019           3D

 19 19  0  0  0  0  0  0  0  0999 V2000
  -19.1192   12.8383   25.2035 C   0  0  0  0  0  0  0  0  0  0  0  0
  -20.4035   12.1292   25.2701 N   0  0  0  0  0  0  0  0  0  0  0  0
  -20.4482   10.9908   24.3033 C   0  0  0  0  0  0  0  0  0  0  0  0
  -21.3672   12.4708   26.1211 C   0  0  0  0  0  0  0  0  0  0  0  0
  -21.1098   13.2016   27.0600 O   0  0  0  0  0  0  0  0  0  0  0  0
  -22.7538   11.9810   26.0690 C   0  0  0  0  0  0  0  0  0  0  0  0
  -23.3333   11.2352   24.9695 C   0  0  0  0  0  0  0  0  0  0  0  0
  -24.6544   11.1932   25.1811 N   0  0  0  0  0  0  0  0  0  0  0  0
  -24.8481   11.7157   26.3887 N   0  0  0  0  0  0  0  0  0  0  0  0
  -23.7339   12.2290   27.0079 C   0  0  0  0  0  0  0  0  0  0  0  0
  -18.9576   13.1703   24.1745 H   0  0  0  0  0  0  0  0  0  0  0  0
  -19.0616   13.6217   25.9643 H   0  0  0  0  0  0  0  0  0  0  0  0
  -18.3321   12.1176   25.4359 H   0  0  0  0  0  0  0  0  0  0  0  0
  -19.4640   10.7800   23.8754 H   0  0  0  0  0  0  0  0  0  0  0  0
  -21.0099   11.3066   23.4210 H   0  0  0  0  0  0  0  0  0  0  0  0
  -20.9864   10.1540   24.7551 H   0  0  0  0  0  0  0  0  0  0  0  0
  -22.9314   10.9008   24.0214 H   0  0  0  0  0  0  0  0  0  0  0  0
  -25.7609   11.8672   26.7945 H   0  0  0  0  0  0  0  0  0  0  0  0
  -23.7659   12.7926   27.9318 H   0  0  0  0  0  0  0  0  0  0  0  0
  1  2  1  0  0  0  0
  1 11  1  0  0  0  0
  1 12  1  0  0  0  0
  1 13  1  0  0  0  0
  2  3  1  0  0  0  0
  2  4  1  0  0  0  0
  3 14  1  0  0  0  0
  3 15  1  0  0  0  0
  3 16  1  0  0  0  0
  4  5  2  0  0  0  0
  4  6  1  0  0  0  0
  6  7  1  0  0  0  0
  6 10  2  0  0  0  0
  7  8  2  0  0  0  0
  7 17  1  0  0  0  0
  8  9  1  0  0  0  0
  9 10  1  0  0  0  0
  9 18  1  0  0  0  0
 10 19  1  0  0  0  0
M  END
$$$$
