MD_3_clus0
  MOE2019           3D

 31 32  0  0  0  0  0  0  0  0999 V2000
  -17.4157   19.0136   26.5970 C   0  0  0  0  0  0  0  0  0  0  0  0
  -16.5359   18.0493   27.5012 C   0  0  0  0  0  0  0  0  0  0  0  0
  -16.6110   16.6441   27.0766 N   0  0  0  0  0  0  0  0  0  0  0  0
  -17.5045   16.1357   26.1465 C   0  0  0  0  0  0  0  0  0  0  0  0
  -17.1030   14.8249   26.0357 C   0  0  0  0  0  0  0  0  0  0  0  0
  -17.8251   13.6379   25.4219 C   0  0  0  0  0  0  0  0  0  0  0  0
  -19.0656   13.4971   26.1070 N   0  0  0  0  0  0  0  0  0  0  0  0
  -20.0361   12.7094   25.7203 C   0  0  0  0  0  0  0  0  0  0  0  0
  -19.9344   11.9139   24.8097 O   0  0  0  0  0  0  0  0  0  0  0  0
  -21.2815   12.7408   26.4483 C   0  0  0  0  0  0  0  0  0  0  0  0
  -21.3869   13.4642   27.6837 C   0  0  0  0  0  0  0  0  0  0  0  0
  -22.6154   13.5891   28.2788 C   0  0  0  0  0  0  0  0  0  0  0  0
  -23.7057   12.9197   27.7403 C   0  0  0  0  0  0  0  0  0  0  0  0
  -23.6161   12.1254   26.7047 N   0  0  0  0  0  0  0  0  0  0  0  0
  -22.4042   12.0318   26.0137 C   0  0  0  0  0  0  0  0  0  0  0  0
  -16.0222   14.6060   26.8354 C   0  0  0  0  0  0  0  0  0  0  0  0
  -15.7136   15.7356   27.4584 N   0  0  0  0  0  0  0  0  0  0  0  0
  -17.2792   18.7765   25.5398 H   0  0  0  0  0  0  0  0  0  0  0  0
  -18.4419   18.8418   26.9281 H   0  0  0  0  0  0  0  0  0  0  0  0
  -17.1179   20.0507   26.7659 H   0  0  0  0  0  0  0  0  0  0  0  0
  -15.5155   18.4111   27.3521 H   0  0  0  0  0  0  0  0  0  0  0  0
  -16.8808   18.1715   28.5321 H   0  0  0  0  0  0  0  0  0  0  0  0
  -18.3559   16.6916   25.7720 H   0  0  0  0  0  0  0  0  0  0  0  0
  -17.9828   13.8499   24.3622 H   0  0  0  0  0  0  0  0  0  0  0  0
  -17.2569   12.7275   25.6288 H   0  0  0  0  0  0  0  0  0  0  0  0
  -19.1179   13.9350   27.0146 H   0  0  0  0  0  0  0  0  0  0  0  0
  -20.5572   13.9328   28.2068 H   0  0  0  0  0  0  0  0  0  0  0  0
  -22.7323   14.2927   29.0996 H   0  0  0  0  0  0  0  0  0  0  0  0
  -24.5932   12.8241   28.3628 H   0  0  0  0  0  0  0  0  0  0  0  0
  -22.4268   11.4870   25.0720 H   0  0  0  0  0  0  0  0  0  0  0  0
  -15.4768   13.6742   26.9247 H   0  0  0  0  0  0  0  0  0  0  0  0
  1  2  1  0  0  0  0
  1 18  1  0  0  0  0
  1 19  1  0  0  0  0
  1 20  1  0  0  0  0
  2  3  1  0  0  0  0
  2 21  1  0  0  0  0
  2 22  1  0  0  0  0
  3  4  1  0  0  0  0
  3 17  1  0  0  0  0
  4  5  2  0  0  0  0
  4 23  1  0  0  0  0
  5  6  1  0  0  0  0
  5 16  1  0  0  0  0
  6  7  1  0  0  0  0
  6 24  1  0  0  0  0
  6 25  1  0  0  0  0
  7  8  1  0  0  0  0
  7 26  1  0  0  0  0
  8  9  2  0  0  0  0
  8 10  1  0  0  0  0
 10 11  1  0  0  0  0
 10 15  2  0  0  0  0
 11 12  2  0  0  0  0
 11 27  1  0  0  0  0
 12 13  1  0  0  0  0
 12 28  1  0  0  0  0
 13 14  2  0  0  0  0
 13 29  1  0  0  0  0
 14 15  1  0  0  0  0
 15 30  1  0  0  0  0
 16 17  2  0  0  0  0
 16 31  1  0  0  0  0
M  END
$$$$
