MD_1_clus6
  MOE2019           3D

 19 19  0  0  0  0  0  0  0  0999 V2000
  -17.2604   11.5871   23.9608 O   0  0  0  0  0  0  0  0  0  0  0  0
  -16.7525   12.6331   24.2545 C   0  0  0  0  0  0  0  0  0  0  0  0
  -17.4841   13.6439   24.7563 N   0  0  0  0  0  0  0  0  0  0  0  0
  -18.9069   13.6457   24.7120 C   0  0  0  0  0  0  0  0  0  0  0  0
  -19.4370   12.7690   25.8667 C   0  0  0  0  0  0  0  0  0  0  0  0
  -19.5761   11.4046   25.4781 O   0  0  0  0  0  0  0  0  0  0  0  0
  -16.9315   14.7392   25.3915 C   0  0  0  0  0  0  0  0  0  0  0  0
  -15.5717   14.9382   25.3970 C   0  0  0  0  0  0  0  0  0  0  0  0
  -14.7420   14.0460   24.5923 C   0  0  0  0  0  0  0  0  0  0  0  0
  -12.8966   14.6180   24.1387 Br  0  0  0  0  0  0  0  0  0  0  0  0
  -15.3466   12.9150   24.0739 C   0  0  0  0  0  0  0  0  0  0  0  0
  -19.2558   14.6750   24.8229 H   0  0  0  0  0  0  0  0  0  0  0  0
  -19.1658   13.1947   23.7507 H   0  0  0  0  0  0  0  0  0  0  0  0
  -18.8067   12.7221   26.7588 H   0  0  0  0  0  0  0  0  0  0  0  0
  -20.4010   13.1656   26.1951 H   0  0  0  0  0  0  0  0  0  0  0  0
  -18.6844   11.2738   25.1091 H   0  0  0  0  0  0  0  0  0  0  0  0
  -17.6690   15.4118   25.8111 H   0  0  0  0  0  0  0  0  0  0  0  0
  -15.1918   15.8048   25.9266 H   0  0  0  0  0  0  0  0  0  0  0  0
  -14.9307   12.1993   23.3727 H   0  0  0  0  0  0  0  0  0  0  0  0
  1  2  2  0  0  0  0
  2  3  1  0  0  0  0
  2 11  1  0  0  0  0
  3  4  1  0  0  0  0
  3  7  1  0  0  0  0
  4  5  1  0  0  0  0
  4 12  1  0  0  0  0
  4 13  1  0  0  0  0
  5  6  1  0  0  0  0
  5 14  1  0  0  0  0
  5 15  1  0  0  0  0
  6 16  1  0  0  0  0
  7  8  2  0  0  0  0
  7 17  1  0  0  0  0
  8  9  1  0  0  0  0
  8 18  1  0  0  0  0
  9 10  1  0  0  0  0
  9 11  2  0  0  0  0
 11 19  1  0  0  0  0
M  END
$$$$
