MD_2_clus6
  MOE2019           3D

 27 28  0  0  0  0  0  0  0  0999 V2000
  -22.9413   13.6692   29.3804 C   0  0  0  0  0  0  0  0  0  0  0  0
  -21.8560   12.8529   30.0398 C   0  0  0  0  0  0  0  0  0  0  0  0
  -21.6739   12.7619   31.4205 N   0  0  0  0  0  0  0  0  0  0  0  0
  -20.4940   12.1352   31.6778 N   0  0  0  0  0  0  0  0  0  0  0  0
  -19.9558   11.7718   30.4656 C   0  0  0  0  0  0  0  0  0  0  0  0
  -20.8524   12.2342   29.4717 C   0  0  0  0  0  0  0  0  0  0  0  0
  -20.6818   11.8857   28.0458 C   0  0  0  0  0  0  0  0  0  0  0  0
  -19.7985   12.9211   27.4922 N   0  0  0  0  0  0  0  0  0  0  0  0
  -19.1289   12.8083   26.2987 C   0  0  0  0  0  0  0  0  0  0  0  0
  -18.0044   13.5851   26.1122 C   0  0  0  0  0  0  0  0  0  0  0  0
  -17.1991   13.4309   24.9459 C   0  0  0  0  0  0  0  0  0  0  0  0
  -17.5446   12.4506   23.9680 C   0  0  0  0  0  0  0  0  0  0  0  0
  -18.7409   11.7563   24.1927 C   0  0  0  0  0  0  0  0  0  0  0  0
  -19.4597   11.8082   25.3662 C   0  0  0  0  0  0  0  0  0  0  0  0
  -20.4390   10.8651   25.4701 F   0  0  0  0  0  0  0  0  0  0  0  0
  -23.9131   13.3614   29.7697 H   0  0  0  0  0  0  0  0  0  0  0  0
  -22.7794   14.6926   29.7257 H   0  0  0  0  0  0  0  0  0  0  0  0
  -22.9894   13.6776   28.2893 H   0  0  0  0  0  0  0  0  0  0  0  0
  -22.1377   13.2963   32.1421 H   0  0  0  0  0  0  0  0  0  0  0  0
  -18.9642   11.3415   30.3955 H   0  0  0  0  0  0  0  0  0  0  0  0
  -20.3069   10.8716   27.8871 H   0  0  0  0  0  0  0  0  0  0  0  0
  -21.6467   11.8907   27.5331 H   0  0  0  0  0  0  0  0  0  0  0  0
  -19.4295   13.5284   28.2154 H   0  0  0  0  0  0  0  0  0  0  0  0
  -17.7772   14.2616   26.9334 H   0  0  0  0  0  0  0  0  0  0  0  0
  -16.2876   14.0189   24.8666 H   0  0  0  0  0  0  0  0  0  0  0  0
  -16.8381   12.3477   23.1488 H   0  0  0  0  0  0  0  0  0  0  0  0
  -18.9383   11.0175   23.4198 H   0  0  0  0  0  0  0  0  0  0  0  0
  1  2  1  0  0  0  0
  1 16  1  0  0  0  0
  1 17  1  0  0  0  0
  1 18  1  0  0  0  0
  2  3  1  0  0  0  0
  2  6  2  0  0  0  0
  3  4  1  0  0  0  0
  3 19  1  0  0  0  0
  4  5  2  0  0  0  0
  5  6  1  0  0  0  0
  5 20  1  0  0  0  0
  6  7  1  0  0  0  0
  7  8  1  0  0  0  0
  7 21  1  0  0  0  0
  7 22  1  0  0  0  0
  8  9  1  0  0  0  0
  8 23  1  0  0  0  0
  9 10  1  0  0  0  0
  9 14  2  0  0  0  0
 10 11  2  0  0  0  0
 10 24  1  0  0  0  0
 11 12  1  0  0  0  0
 11 25  1  0  0  0  0
 12 13  2  0  0  0  0
 12 26  1  0  0  0  0
 13 14  1  0  0  0  0
 13 27  1  0  0  0  0
 14 15  1  0  0  0  0
M  END
$$$$
