MD_3_clus3
  MOE2019           3D

 23 23  0  0  0  0  0  0  0  0999 V2000
  -21.1851   11.3377   30.3502 C   0  0  0  0  0  0  0  0  0  0  0  0
  -20.1089   12.3690   30.1944 C   0  0  0  0  0  0  0  0  0  0  0  0
  -18.8179   11.7437   30.8157 C   0  0  0  0  0  0  0  0  0  0  0  0
  -19.9330   12.9731   28.8308 C   0  0  0  0  0  0  0  0  0  0  0  0
  -19.9956   14.3228   28.6910 N   0  0  0  0  0  0  0  0  0  0  0  0
  -19.5541   14.7876   27.5260 C   0  0  0  0  0  0  0  0  0  0  0  0
  -19.1321   13.9646   26.5057 C   0  0  0  0  0  0  0  0  0  0  0  0
  -18.6486   14.8612   25.1316 C   0  0  0  0  0  0  0  0  0  0  0  0
  -19.1635   12.5796   26.6308 C   0  0  0  0  0  0  0  0  0  0  0  0
  -19.5828   12.1148   27.8424 N   0  0  0  0  0  0  0  0  0  0  0  0
  -18.8440   11.6449   25.4735 C   0  0  0  0  0  0  0  0  0  0  0  0
  -18.2422   12.0030   24.4572 O   0  0  0  0  0  0  0  0  0  0  0  0
  -19.2111   10.3715   25.5072 N   0  0  0  0  0  0  0  0  0  0  0  0
  -21.0964   10.6659   29.4936 H   0  0  0  0  0  0  0  0  0  0  0  0
  -21.1017   10.7264   31.2508 H   0  0  0  0  0  0  0  0  0  0  0  0
  -22.2016   11.7353   30.3723 H   0  0  0  0  0  0  0  0  0  0  0  0
  -20.4031   13.0934   30.9556 H   0  0  0  0  0  0  0  0  0  0  0  0
  -18.9899   11.5138   31.8686 H   0  0  0  0  0  0  0  0  0  0  0  0
  -18.4766   10.8304   30.3217 H   0  0  0  0  0  0  0  0  0  0  0  0
  -18.0120   12.4604   30.6459 H   0  0  0  0  0  0  0  0  0  0  0  0
  -19.3625   15.8551   27.4310 H   0  0  0  0  0  0  0  0  0  0  0  0
  -19.0789    9.7262   24.7431 H   0  0  0  0  0  0  0  0  0  0  0  0
  -19.9545   10.0120   26.0882 H   0  0  0  0  0  0  0  0  0  0  0  0
  1  2  1  0  0  0  0
  1 14  1  0  0  0  0
  1 15  1  0  0  0  0
  1 16  1  0  0  0  0
  2  3  1  0  0  0  0
  2  4  1  0  0  0  0
  2 17  1  0  0  0  0
  3 18  1  0  0  0  0
  3 19  1  0  0  0  0
  3 20  1  0  0  0  0
  4  5  1  0  0  0  0
  4 10  2  0  0  0  0
  5  6  2  0  0  0  0
  6  7  1  0  0  0  0
  6 21  1  0  0  0  0
  7  8  1  0  0  0  0
  7  9  2  0  0  0  0
  9 10  1  0  0  0  0
  9 11  1  0  0  0  0
 11 12  2  0  0  0  0
 11 13  1  0  0  0  0
 13 22  1  0  0  0  0
 13 23  1  0  0  0  0
M  END
$$$$
