MD_2_clus1
  MOE2019           3D

 21 21  0  0  0  0  0  0  0  0999 V2000
  -21.3729   16.0656   25.1085 C   0  0  0  0  0  0  0  0  0  0  0  0
  -19.9892   16.0592   25.3368 O   0  0  0  0  0  0  0  0  0  0  0  0
  -19.6052   15.0860   26.2714 C   0  0  0  0  0  0  0  0  0  0  0  0
  -19.7830   13.7651   25.8855 C   0  0  0  0  0  0  0  0  0  0  0  0
  -19.3677   12.7691   26.7801 C   0  0  0  0  0  0  0  0  0  0  0  0
  -19.3101   10.8788   26.1788 Br  0  0  0  0  0  0  0  0  0  0  0  0
  -19.0029   13.0782   28.0560 C   0  0  0  0  0  0  0  0  0  0  0  0
  -18.8607   14.3962   28.4726 C   0  0  0  0  0  0  0  0  0  0  0  0
  -19.1346   15.4314   27.5606 C   0  0  0  0  0  0  0  0  0  0  0  0
  -18.9867   16.7998   28.0904 C   0  0  0  0  0  0  0  0  0  0  0  0
  -20.2480   17.5381   27.9737 C   0  0  0  0  0  0  0  0  0  0  0  0
  -20.2663   18.5258   27.3054 O   0  0  0  0  0  0  0  0  0  0  0  0
  -21.2619   17.0879   28.4006 O   0  5  0  0  0  0  0  0  0  0  0  0
  -21.6182   15.2360   24.4408 H   0  0  0  0  0  0  0  0  0  0  0  0
  -21.9066   15.8737   26.0432 H   0  0  0  0  0  0  0  0  0  0  0  0
  -21.6668   16.9599   24.5543 H   0  0  0  0  0  0  0  0  0  0  0  0
  -20.0879   13.4431   24.8930 H   0  0  0  0  0  0  0  0  0  0  0  0
  -18.8017   12.2439   28.7232 H   0  0  0  0  0  0  0  0  0  0  0  0
  -18.6762   14.6648   29.5093 H   0  0  0  0  0  0  0  0  0  0  0  0
  -18.6196   16.8181   29.1181 H   0  0  0  0  0  0  0  0  0  0  0  0
  -18.2065   17.3932   27.6101 H   0  0  0  0  0  0  0  0  0  0  0  0
  1  2  1  0  0  0  0
  1 14  1  0  0  0  0
  1 15  1  0  0  0  0
  1 16  1  0  0  0  0
  2  3  1  0  0  0  0
  3  4  1  0  0  0  0
  3  9  2  0  0  0  0
  4  5  2  0  0  0  0
  4 17  1  0  0  0  0
  5  6  1  0  0  0  0
  5  7  1  0  0  0  0
  7  8  2  0  0  0  0
  7 18  1  0  0  0  0
  8  9  1  0  0  0  0
  8 19  1  0  0  0  0
  9 10  1  0  0  0  0
 10 11  1  0  0  0  0
 10 20  1  0  0  0  0
 10 21  1  0  0  0  0
 11 12  2  0  0  0  0
 11 13  1  0  0  0  0
M  CHG  1  13  -1
M  END
$$$$
