MD_3_clus3
  MOE2019           3D

 32 33  0  0  0  0  0  0  0  0999 V2000
  -25.4867   19.5543   30.1091 C   0  0  0  0  0  0  0  0  0  0  0  0
  -24.1987   19.0785   30.4179 O   0  0  0  0  0  0  0  0  0  0  0  0
  -23.6855   18.2198   29.4521 C   0  0  0  0  0  0  0  0  0  0  0  0
  -24.2902   17.8445   28.4527 O   0  0  0  0  0  0  0  0  0  0  0  0
  -22.4779   17.9110   29.7535 N   0  0  0  0  0  0  0  0  0  0  0  0
  -21.6377   16.9623   29.0799 C   0  0  0  0  0  0  0  0  0  0  0  0
  -20.6140   17.4495   28.3778 C   0  0  0  0  0  0  0  0  0  0  0  0
  -19.5891   16.5733   27.8671 C   0  0  0  0  0  0  0  0  0  0  0  0
  -19.5593   15.2651   28.2095 C   0  0  0  0  0  0  0  0  0  0  0  0
  -18.3608   14.4250   27.8720 C   0  0  0  0  0  0  0  0  0  0  0  0
  -18.4482   13.5680   26.5991 C   0  0  0  0  0  0  0  0  0  0  0  0
  -19.1332   12.3453   26.6865 C   0  0  0  0  0  0  0  0  0  0  0  0
  -19.1434   11.5521   25.5240 C   0  0  0  0  0  0  0  0  0  0  0  0
  -18.6036   11.8696   24.3165 N   0  0  0  0  0  0  0  0  0  0  0  0
  -17.9352   12.9919   24.2997 C   0  0  0  0  0  0  0  0  0  0  0  0
  -17.8611   13.8525   25.3946 C   0  0  0  0  0  0  0  0  0  0  0  0
  -20.6147   14.7555   28.9323 C   0  0  0  0  0  0  0  0  0  0  0  0
  -21.6968   15.5697   29.2835 C   0  0  0  0  0  0  0  0  0  0  0  0
  -26.1836   18.7263   29.9552 H   0  0  0  0  0  0  0  0  0  0  0  0
  -25.6901   20.1665   30.9914 H   0  0  0  0  0  0  0  0  0  0  0  0
  -25.5235   20.0732   29.1482 H   0  0  0  0  0  0  0  0  0  0  0  0
  -21.9899   18.3128   30.5390 H   0  0  0  0  0  0  0  0  0  0  0  0
  -20.5272   18.5301   28.2976 H   0  0  0  0  0  0  0  0  0  0  0  0
  -18.8043   17.1501   27.3845 H   0  0  0  0  0  0  0  0  0  0  0  0
  -17.4857   15.0621   27.7361 H   0  0  0  0  0  0  0  0  0  0  0  0
  -18.2023   13.7375   28.7051 H   0  0  0  0  0  0  0  0  0  0  0  0
  -19.5431   12.1191   27.6674 H   0  0  0  0  0  0  0  0  0  0  0  0
  -19.7129   10.6260   25.4744 H   0  0  0  0  0  0  0  0  0  0  0  0
  -17.5095   13.2696   23.3382 H   0  0  0  0  0  0  0  0  0  0  0  0
  -17.2085   14.7107   25.2560 H   0  0  0  0  0  0  0  0  0  0  0  0
  -20.5878   13.7130   29.2345 H   0  0  0  0  0  0  0  0  0  0  0  0
  -22.4800   15.1395   29.9016 H   0  0  0  0  0  0  0  0  0  0  0  0
  1  2  1  0  0  0  0
  1 19  1  0  0  0  0
  1 20  1  0  0  0  0
  1 21  1  0  0  0  0
  2  3  1  0  0  0  0
  3  4  2  0  0  0  0
  3  5  1  0  0  0  0
  5  6  1  0  0  0  0
  5 22  1  0  0  0  0
  6  7  1  0  0  0  0
  6 18  2  0  0  0  0
  7  8  2  0  0  0  0
  7 23  1  0  0  0  0
  8  9  1  0  0  0  0
  8 24  1  0  0  0  0
  9 10  1  0  0  0  0
  9 17  2  0  0  0  0
 10 11  1  0  0  0  0
 10 25  1  0  0  0  0
 10 26  1  0  0  0  0
 11 12  1  0  0  0  0
 11 16  2  0  0  0  0
 12 13  2  0  0  0  0
 12 27  1  0  0  0  0
 13 14  1  0  0  0  0
 13 28  1  0  0  0  0
 14 15  2  0  0  0  0
 15 16  1  0  0  0  0
 15 29  1  0  0  0  0
 16 30  1  0  0  0  0
 17 18  1  0  0  0  0
 17 31  1  0  0  0  0
 18 32  1  0  0  0  0
M  END
$$$$
