MD_1_clus0
  MOE2019           3D

 22 22  0  0  0  0  0  0  0  0999 V2000
  -17.9457   14.2581   28.6944 C   0  0  0  0  0  0  0  0  0  0  0  0
  -18.7721   13.7554   27.5644 C   0  0  0  0  0  0  0  0  0  0  0  0
  -18.0533   13.7321   26.3210 N   0  0  0  0  0  0  0  0  0  0  0  0
  -17.0755   12.8431   25.9331 C   0  0  0  0  0  0  0  0  0  0  0  0
  -16.8071   13.3143   24.7022 C   0  0  0  0  0  0  0  0  0  0  0  0
  -16.0666   12.5695   23.6183 C   0  0  0  0  0  0  0  0  0  0  0  0
  -14.9825   11.7434   24.2768 C   0  0  0  0  0  0  0  0  0  0  0  0
  -14.2644   11.0890   23.2539 O   0  0  0  0  0  0  0  0  0  0  0  0
  -17.4920   14.5553   24.4086 C   0  0  0  0  0  0  0  0  0  0  0  0
  -18.2421   14.7748   25.4660 N   0  0  0  0  0  0  0  0  0  0  0  0
  -18.6226   14.3889   29.5416 H   0  0  0  0  0  0  0  0  0  0  0  0
  -17.2683   13.4423   28.9551 H   0  0  0  0  0  0  0  0  0  0  0  0
  -17.4107   15.1959   28.5292 H   0  0  0  0  0  0  0  0  0  0  0  0
  -19.1677   12.7757   27.8425 H   0  0  0  0  0  0  0  0  0  0  0  0
  -19.6186   14.4420   27.4850 H   0  0  0  0  0  0  0  0  0  0  0  0
  -16.8661   11.9038   26.4311 H   0  0  0  0  0  0  0  0  0  0  0  0
  -16.7457   11.9851   22.9938 H   0  0  0  0  0  0  0  0  0  0  0  0
  -15.5234   13.2917   23.0044 H   0  0  0  0  0  0  0  0  0  0  0  0
  -14.2332   12.3822   24.7518 H   0  0  0  0  0  0  0  0  0  0  0  0
  -15.4104   10.9737   24.9244 H   0  0  0  0  0  0  0  0  0  0  0  0
  -14.0613   11.7173   22.5379 H   0  0  0  0  0  0  0  0  0  0  0  0
  -17.4420   15.2198   23.5548 H   0  0  0  0  0  0  0  0  0  0  0  0
  1  2  1  0  0  0  0
  1 11  1  0  0  0  0
  1 12  1  0  0  0  0
  1 13  1  0  0  0  0
  2  3  1  0  0  0  0
  2 14  1  0  0  0  0
  2 15  1  0  0  0  0
  3  4  1  0  0  0  0
  3 10  1  0  0  0  0
  4  5  2  0  0  0  0
  4 16  1  0  0  0  0
  5  6  1  0  0  0  0
  5  9  1  0  0  0  0
  6  7  1  0  0  0  0
  6 17  1  0  0  0  0
  6 18  1  0  0  0  0
  7  8  1  0  0  0  0
  7 19  1  0  0  0  0
  7 20  1  0  0  0  0
  8 21  1  0  0  0  0
  9 10  2  0  0  0  0
  9 22  1  0  0  0  0
M  END
$$$$
