MD_2_clus1
  MOE2019           3D

 30 31  0  0  0  0  0  0  0  0999 V2000
  -17.4403    8.8395   29.9891 C   0  0  0  0  0  0  0  0  0  0  0  0
  -18.3171    8.9300   31.1436 C   0  0  0  0  0  0  0  0  0  0  0  0
  -18.0022   10.1011   32.0030 N   0  0  0  0  0  0  0  0  0  0  0  0
  -17.3002    9.8733   33.2806 C   0  0  0  0  0  0  0  0  0  0  0  0
  -16.5513   11.1496   33.7460 C   0  0  0  0  0  0  0  0  0  0  0  0
  -18.7955   11.2052   31.8334 C   0  0  0  0  0  0  0  0  0  0  0  0
  -18.4205   12.3263   31.0271 C   0  0  0  0  0  0  0  0  0  0  0  0
  -19.3987   13.3890   30.8745 C   0  0  0  0  0  0  0  0  0  0  0  0
  -18.8631   14.6075   30.1901 C   0  0  0  0  0  0  0  0  0  0  0  0
  -20.6961   13.3421   31.3043 N   0  0  0  0  0  0  0  0  0  0  0  0
  -20.9268   12.0953   31.8031 C   0  0  0  0  0  0  0  0  0  0  0  0
  -22.1713   11.8216   32.2272 N   0  0  0  0  0  0  0  0  0  0  0  0
  -21.9083   10.6329   32.9337 C   0  0  0  0  0  0  0  0  0  0  0  0
  -20.6422   10.1234   32.9009 N   0  0  0  0  0  0  0  0  0  0  0  0
  -20.0665   11.1240   32.2554 N   0  0  0  0  0  0  0  0  0  0  0  0
  -17.7190    8.0119   29.3328 H   0  0  0  0  0  0  0  0  0  0  0  0
  -17.3543    9.6921   29.3116 H   0  0  0  0  0  0  0  0  0  0  0  0
  -16.4185    8.6600   30.3275 H   0  0  0  0  0  0  0  0  0  0  0  0
  -19.2898    9.0517   30.6596 H   0  0  0  0  0  0  0  0  0  0  0  0
  -18.3159    7.9360   31.5960 H   0  0  0  0  0  0  0  0  0  0  0  0
  -17.9580    9.4698   34.0536 H   0  0  0  0  0  0  0  0  0  0  0  0
  -16.6057    9.0584   33.0607 H   0  0  0  0  0  0  0  0  0  0  0  0
  -15.9150   10.9359   34.6067 H   0  0  0  0  0  0  0  0  0  0  0  0
  -15.9641   11.4414   32.8731 H   0  0  0  0  0  0  0  0  0  0  0  0
  -17.1670   12.0383   33.9057 H   0  0  0  0  0  0  0  0  0  0  0  0
  -17.3684   12.4319   30.7836 H   0  0  0  0  0  0  0  0  0  0  0  0
  -19.5963   15.2129   29.6525 H   0  0  0  0  0  0  0  0  0  0  0  0
  -18.2932   15.2395   30.8751 H   0  0  0  0  0  0  0  0  0  0  0  0
  -18.2077   14.2032   29.4153 H   0  0  0  0  0  0  0  0  0  0  0  0
  -22.7394   10.0891   33.3536 H   0  0  0  0  0  0  0  0  0  0  0  0
  1  2  1  0  0  0  0
  1 16  1  0  0  0  0
  1 17  1  0  0  0  0
  1 18  1  0  0  0  0
  2  3  1  0  0  0  0
  2 19  1  0  0  0  0
  2 20  1  0  0  0  0
  3  4  1  0  0  0  0
  3  6  1  0  0  0  0
  4  5  1  0  0  0  0
  4 21  1  0  0  0  0
  4 22  1  0  0  0  0
  5 23  1  0  0  0  0
  5 24  1  0  0  0  0
  5 25  1  0  0  0  0
  6  7  2  0  0  0  0
  6 15  1  0  0  0  0
  7  8  1  0  0  0  0
  7 26  1  0  0  0  0
  8  9  1  0  0  0  0
  8 10  2  0  0  0  0
  9 27  1  0  0  0  0
  9 28  1  0  0  0  0
  9 29  1  0  0  0  0
 10 11  1  0  0  0  0
 11 12  2  0  0  0  0
 11 15  1  0  0  0  0
 12 13  1  0  0  0  0
 13 14  2  0  0  0  0
 13 30  1  0  0  0  0
 14 15  1  0  0  0  0
M  END
$$$$
