MD_2_clus3
  MOE2019           3D

 26 26  0  0  1  0  0  0  0  0999 V2000
  -17.9358   14.0050   24.4787 C   0  0  0  0  0  0  0  0  0  0  0  0
  -18.6783   12.6632   24.4602 C   0  0  3  0  0  0  0  0  0  0  0  0
  -17.6964   11.4859   24.0968 C   0  0  0  0  0  0  0  0  0  0  0  0
  -18.3951   10.1878   24.2787 O   0  0  0  0  0  0  0  0  0  0  0  0
  -19.4111   12.4640   25.8015 N   0  0  0  0  0  0  0  0  0  0  0  0
  -18.6655   12.8374   27.0229 C   0  0  0  0  0  0  0  0  0  0  0  0
  -20.7782   12.2800   25.7872 C   0  0  0  0  0  0  0  0  0  0  0  0
  -21.1283   11.5114   24.7704 N   0  0  0  0  0  0  0  0  0  0  0  0
  -22.4278   11.1152   24.6900 C   0  0  0  0  0  0  0  0  0  0  0  0
  -23.4258   11.7153   25.4918 C   0  0  0  0  0  0  0  0  0  0  0  0
  -23.0420   12.5693   26.5505 C   0  0  0  0  0  0  0  0  0  0  0  0
  -21.6773   12.8792   26.7082 C   0  0  0  0  0  0  0  0  0  0  0  0
  -21.3393   13.7000   27.6427 F   0  0  0  0  0  0  0  0  0  0  0  0
  -17.8140   14.2779   23.4288 H   0  0  0  0  0  0  0  0  0  0  0  0
  -18.5836   14.7571   24.9358 H   0  0  0  0  0  0  0  0  0  0  0  0
  -16.9912   13.9933   25.0263 H   0  0  0  0  0  0  0  0  0  0  0  0
  -19.4552   12.7027   23.6916 H   0  0  0  0  0  0  0  0  0  0  0  0
  -17.4172   11.4845   23.0405 H   0  0  0  0  0  0  0  0  0  0  0  0
  -16.8543   11.5978   24.7841 H   0  0  0  0  0  0  0  0  0  0  0  0
  -19.0857   10.5423   24.8668 H   0  0  0  0  0  0  0  0  0  0  0  0
  -18.5518   13.9236   27.0715 H   0  0  0  0  0  0  0  0  0  0  0  0
  -19.2263   12.3759   27.8393 H   0  0  0  0  0  0  0  0  0  0  0  0
  -17.6741   12.4036   27.1777 H   0  0  0  0  0  0  0  0  0  0  0  0
  -22.6091   10.3221   23.9688 H   0  0  0  0  0  0  0  0  0  0  0  0
  -24.4610   11.5373   25.2107 H   0  0  0  0  0  0  0  0  0  0  0  0
  -23.8059   12.9925   27.1967 H   0  0  0  0  0  0  0  0  0  0  0  0
  1  2  1  0  0  0  0
  1 14  1  0  0  0  0
  1 15  1  0  0  0  0
  1 16  1  0  0  0  0
  2  3  1  0  0  0  0
  2  5  1  0  0  0  0
  2 17  1  0  0  0  0
  3  4  1  0  0  0  0
  3 18  1  0  0  0  0
  3 19  1  0  0  0  0
  4 20  1  0  0  0  0
  5  6  1  0  0  0  0
  5  7  1  0  0  0  0
  6 21  1  0  0  0  0
  6 22  1  0  0  0  0
  6 23  1  0  0  0  0
  7  8  1  0  0  0  0
  7 12  2  0  0  0  0
  8  9  2  0  0  0  0
  9 10  1  0  0  0  0
  9 24  1  0  0  0  0
 10 11  2  0  0  0  0
 10 25  1  0  0  0  0
 11 12  1  0  0  0  0
 11 26  1  0  0  0  0
 12 13  1  0  0  0  0
M  END
$$$$
