MD_2_clus2
  MOE2019           3D

 23 23  0  0  0  0  0  0  0  0999 V2000
  -15.0556   13.8032   22.2559 C   0  0  0  0  0  0  0  0  0  0  0  0
  -16.3098   13.6586   23.0649 N   0  0  0  0  0  0  0  0  0  0  0  0
  -17.3074   12.7327   22.4715 C   0  0  0  0  0  0  0  0  0  0  0  0
  -16.6922   11.3063   22.2895 C   0  0  0  0  0  0  0  0  0  0  0  0
  -16.2439   10.7904   23.5204 O   0  0  0  0  0  0  0  0  0  0  0  0
  -16.4396   14.0854   24.3202 C   0  0  0  0  0  0  0  0  0  0  0  0
  -15.9923   15.3120   24.7562 C   0  0  0  0  0  0  0  0  0  0  0  0
  -16.1250   15.6656   26.1515 C   0  0  0  0  0  0  0  0  0  0  0  0
  -16.6119   14.7221   27.0400 C   0  0  0  0  0  0  0  0  0  0  0  0
  -17.0729   13.5344   26.5023 C   0  0  0  0  0  0  0  0  0  0  0  0
  -16.9320   13.1201   25.1665 N   0  0  0  0  0  0  0  0  0  0  0  0
  -14.3079   13.0645   22.5558 H   0  0  0  0  0  0  0  0  0  0  0  0
  -15.3295   13.6040   21.2165 H   0  0  0  0  0  0  0  0  0  0  0  0
  -14.6209   14.8059   22.2608 H   0  0  0  0  0  0  0  0  0  0  0  0
  -18.2453   12.6467   23.0254 H   0  0  0  0  0  0  0  0  0  0  0  0
  -17.5799   12.9263   21.4314 H   0  0  0  0  0  0  0  0  0  0  0  0
  -17.5124   10.6809   21.9287 H   0  0  0  0  0  0  0  0  0  0  0  0
  -15.9255   11.3777   21.5136 H   0  0  0  0  0  0  0  0  0  0  0  0
  -16.3185   11.5810   24.0837 H   0  0  0  0  0  0  0  0  0  0  0  0
  -15.4107   15.9632   24.1076 H   0  0  0  0  0  0  0  0  0  0  0  0
  -15.6721   16.5723   26.5449 H   0  0  0  0  0  0  0  0  0  0  0  0
  -16.6869   14.9835   28.0925 H   0  0  0  0  0  0  0  0  0  0  0  0
  -17.5488   12.7591   27.0990 H   0  0  0  0  0  0  0  0  0  0  0  0
  1  2  1  0  0  0  0
  1 12  1  0  0  0  0
  1 13  1  0  0  0  0
  1 14  1  0  0  0  0
  2  3  1  0  0  0  0
  2  6  1  0  0  0  0
  3  4  1  0  0  0  0
  3 15  1  0  0  0  0
  3 16  1  0  0  0  0
  4  5  1  0  0  0  0
  4 17  1  0  0  0  0
  4 18  1  0  0  0  0
  5 19  1  0  0  0  0
  6  7  1  0  0  0  0
  6 11  2  0  0  0  0
  7  8  2  0  0  0  0
  7 20  1  0  0  0  0
  8  9  1  0  0  0  0
  8 21  1  0  0  0  0
  9 10  2  0  0  0  0
  9 22  1  0  0  0  0
 10 11  1  0  0  0  0
 10 23  1  0  0  0  0
M  END
$$$$
