MD_3_clus1
  MOE2019           3D

 29 30  0  0  0  0  0  0  0  0999 V2000
  -15.2765   16.6314   26.0805 N   0  0  0  0  0  0  0  0  0  0  0  0
  -15.5327   15.8504   27.0965 C   0  0  0  0  0  0  0  0  0  0  0  0
  -14.8843   16.0528   28.1339 O   0  0  0  0  0  0  0  0  0  0  0  0
  -16.3251   14.7529   26.9452 N   0  0  0  0  0  0  0  0  0  0  0  0
  -17.3125   14.7282   25.7737 C   0  0  0  0  0  0  0  0  0  0  0  0
  -18.3164   13.5959   25.8798 C   0  0  0  0  0  0  0  0  0  0  0  0
  -19.0793   13.6129   27.1274 N   0  0  0  0  0  0  0  0  0  0  0  0
  -18.1514   13.9333   28.3166 C   0  0  0  0  0  0  0  0  0  0  0  0
  -16.6456   13.8641   28.0602 C   0  0  0  0  0  0  0  0  0  0  0  0
  -20.4201   13.8341   27.2447 C   0  0  0  0  0  0  0  0  0  0  0  0
  -20.7873   14.4925   28.2047 O   0  0  0  0  0  0  0  0  0  0  0  0
  -21.3908   13.0725   26.4112 C   0  0  0  0  0  0  0  0  0  0  0  0
  -22.7099   13.1276   26.7502 C   0  0  0  0  0  0  0  0  0  0  0  0
  -23.4221   12.3449   25.8020 C   0  0  0  0  0  0  0  0  0  0  0  0
  -22.4373   11.9387   24.9438 C   0  0  0  0  0  0  0  0  0  0  0  0
  -21.1375   12.3093   25.2693 O   0  0  0  0  0  0  0  0  0  0  0  0
  -14.7351   17.4548   26.2984 H   0  0  0  0  0  0  0  0  0  0  0  0
  -15.8725   16.5670   25.2683 H   0  0  0  0  0  0  0  0  0  0  0  0
  -17.8697   15.6661   25.7088 H   0  0  0  0  0  0  0  0  0  0  0  0
  -16.7679   14.5114   24.8512 H   0  0  0  0  0  0  0  0  0  0  0  0
  -19.0939   13.9233   25.1856 H   0  0  0  0  0  0  0  0  0  0  0  0
  -17.9003   12.6070   25.6702 H   0  0  0  0  0  0  0  0  0  0  0  0
  -18.4786   14.9110   28.6784 H   0  0  0  0  0  0  0  0  0  0  0  0
  -18.3924   13.1843   29.0746 H   0  0  0  0  0  0  0  0  0  0  0  0
  -16.3602   12.8791   27.6830 H   0  0  0  0  0  0  0  0  0  0  0  0
  -16.1851   14.1706   29.0030 H   0  0  0  0  0  0  0  0  0  0  0  0
  -23.0963   13.6675   27.6083 H   0  0  0  0  0  0  0  0  0  0  0  0
  -24.5062   12.3469   25.8478 H   0  0  0  0  0  0  0  0  0  0  0  0
  -22.4622   11.4504   23.9775 H   0  0  0  0  0  0  0  0  0  0  0  0
  1  2  1  0  0  0  0
  1 17  1  0  0  0  0
  1 18  1  0  0  0  0
  2  3  2  0  0  0  0
  2  4  1  0  0  0  0
  4  5  1  0  0  0  0
  4  9  1  0  0  0  0
  5  6  1  0  0  0  0
  5 19  1  0  0  0  0
  5 20  1  0  0  0  0
  6  7  1  0  0  0  0
  6 21  1  0  0  0  0
  6 22  1  0  0  0  0
  7  8  1  0  0  0  0
  7 10  1  0  0  0  0
  8  9  1  0  0  0  0
  8 23  1  0  0  0  0
  8 24  1  0  0  0  0
  9 25  1  0  0  0  0
  9 26  1  0  0  0  0
 10 11  2  0  0  0  0
 10 12  1  0  0  0  0
 12 13  2  0  0  0  0
 12 16  1  0  0  0  0
 13 14  1  0  0  0  0
 13 27  1  0  0  0  0
 14 15  2  0  0  0  0
 14 28  1  0  0  0  0
 15 16  1  0  0  0  0
 15 29  1  0  0  0  0
M  END
$$$$
