MD_3_clus2
  MOE2019           3D

 20 20  0  0  0  0  0  0  0  0999 V2000
  -17.1745   14.8023   27.6238 C   0  0  0  0  0  0  0  0  0  0  0  0
  -18.4938   14.8022   26.8707 C   0  0  0  0  0  0  0  0  0  0  0  0
  -18.8293   13.8303   26.0228 C   0  0  0  0  0  0  0  0  0  0  0  0
  -20.0290   13.9056   25.2942 C   0  0  0  0  0  0  0  0  0  0  0  0
  -20.1876   12.9695   24.3625 F   0  0  0  0  0  0  0  0  0  0  0  0
  -20.7856   15.0796   25.4359 C   0  0  0  0  0  0  0  0  0  0  0  0
  -20.4267   16.1341   26.2972 C   0  0  0  0  0  0  0  0  0  0  0  0
  -19.3044   15.9517   27.0774 C   0  0  0  0  0  0  0  0  0  0  0  0
  -21.2914   17.6480   26.3634 S   0  0  0  0  0  0  0  0  0  0  0  0
  -20.4107   18.6610   26.9702 O   0  0  0  0  0  0  0  0  0  0  0  0
  -22.3362   17.8148   25.4118 O   0  0  0  0  0  0  0  0  0  0  0  0
  -22.3443   17.5646   27.6392 N   0  0  0  0  0  0  0  0  0  0  0  0
  -17.3084   15.1627   28.6462 H   0  0  0  0  0  0  0  0  0  0  0  0
  -16.8644   13.7556   27.6110 H   0  0  0  0  0  0  0  0  0  0  0  0
  -16.5758   15.5648   27.1215 H   0  0  0  0  0  0  0  0  0  0  0  0
  -18.1853   12.9552   25.9839 H   0  0  0  0  0  0  0  0  0  0  0  0
  -21.6375   15.3000   24.7978 H   0  0  0  0  0  0  0  0  0  0  0  0
  -19.0291   16.6821   27.8329 H   0  0  0  0  0  0  0  0  0  0  0  0
  -21.9674   16.6902   27.9990 H   0  0  0  0  0  0  0  0  0  0  0  0
  -21.9177   18.3011   28.1986 H   0  0  0  0  0  0  0  0  0  0  0  0
  1  2  1  0  0  0  0
  1 13  1  0  0  0  0
  1 14  1  0  0  0  0
  1 15  1  0  0  0  0
  2  3  1  0  0  0  0
  2  8  2  0  0  0  0
  3  4  2  0  0  0  0
  3 16  1  0  0  0  0
  4  5  1  0  0  0  0
  4  6  1  0  0  0  0
  6  7  2  0  0  0  0
  6 17  1  0  0  0  0
  7  8  1  0  0  0  0
  7  9  1  0  0  0  0
  8 18  1  0  0  0  0
  9 10  2  0  0  0  0
  9 11  2  0  0  0  0
  9 12  1  0  0  0  0
 12 19  1  0  0  0  0
 12 20  1  0  0  0  0
M  END
$$$$
