MD_3_clus3
  MOE2019           3D

 24 24  0  0  0  0  0  0  0  0999 V2000
  -19.7819   16.0734   26.5144 C   0  0  0  0  0  0  0  0  0  0  0  0
  -19.5619   14.6706   25.8265 C   0  0  0  0  0  0  0  0  0  0  0  0
  -20.6317   14.4292   24.9202 O   0  0  0  0  0  0  0  0  0  0  0  0
  -20.9902   13.1748   24.6425 C   0  0  0  0  0  0  0  0  0  0  0  0
  -20.3673   12.1477   24.9926 O   0  0  0  0  0  0  0  0  0  0  0  0
  -22.1729   13.1173   24.0235 N   0  0  0  0  0  0  0  0  0  0  0  0
  -22.4379   11.8249   23.3308 C   0  0  0  0  0  0  0  0  0  0  0  0
  -23.7828   11.7490   22.5669 C   0  0  0  0  0  0  0  0  0  0  0  0
  -24.2155   12.9915   21.9850 O   0  0  0  0  0  0  0  0  0  0  0  0
  -24.3328   14.0458   22.9594 C   0  0  0  0  0  0  0  0  0  0  0  0
  -22.9421   14.2880   23.6066 C   0  0  0  0  0  0  0  0  0  0  0  0
  -20.7800   16.5036   26.4103 H   0  0  0  0  0  0  0  0  0  0  0  0
  -19.5988   16.1236   27.5902 H   0  0  0  0  0  0  0  0  0  0  0  0
  -18.9731   16.7400   26.2099 H   0  0  0  0  0  0  0  0  0  0  0  0
  -18.6405   14.7259   25.2403 H   0  0  0  0  0  0  0  0  0  0  0  0
  -19.4846   13.8621   26.5581 H   0  0  0  0  0  0  0  0  0  0  0  0
  -21.6580   11.7248   22.5713 H   0  0  0  0  0  0  0  0  0  0  0  0
  -22.4080   10.9535   23.9904 H   0  0  0  0  0  0  0  0  0  0  0  0
  -23.8362   11.0969   21.6909 H   0  0  0  0  0  0  0  0  0  0  0  0
  -24.5705   11.4371   23.2572 H   0  0  0  0  0  0  0  0  0  0  0  0
  -24.6840   14.9316   22.4250 H   0  0  0  0  0  0  0  0  0  0  0  0
  -25.0877   13.6114   23.6204 H   0  0  0  0  0  0  0  0  0  0  0  0
  -23.1069   14.9921   24.4251 H   0  0  0  0  0  0  0  0  0  0  0  0
  -22.3675   14.6564   22.7532 H   0  0  0  0  0  0  0  0  0  0  0  0
  1  2  1  0  0  0  0
  1 12  1  0  0  0  0
  1 13  1  0  0  0  0
  1 14  1  0  0  0  0
  2  3  1  0  0  0  0
  2 15  1  0  0  0  0
  2 16  1  0  0  0  0
  3  4  1  0  0  0  0
  4  5  2  0  0  0  0
  4  6  1  0  0  0  0
  6  7  1  0  0  0  0
  6 11  1  0  0  0  0
  7  8  1  0  0  0  0
  7 17  1  0  0  0  0
  7 18  1  0  0  0  0
  8  9  1  0  0  0  0
  8 19  1  0  0  0  0
  8 20  1  0  0  0  0
  9 10  1  0  0  0  0
 10 11  1  0  0  0  0
 10 21  1  0  0  0  0
 10 22  1  0  0  0  0
 11 23  1  0  0  0  0
 11 24  1  0  0  0  0
M  END
$$$$
