MD_1_clus3
  MOE2019           3D

 24 25  0  0  0  0  0  0  0  0999 V2000
  -16.7381   14.0848   28.6842 C   0  0  0  0  0  0  0  0  0  0  0  0
  -16.0501   15.3551   27.7850 S   0  0  0  0  0  0  0  0  0  0  0  0
  -15.3714   16.2921   28.5942 O   0  0  0  0  0  0  0  0  0  0  0  0
  -15.4045   14.6945   26.7702 O   0  0  0  0  0  0  0  0  0  0  0  0
  -17.3131   16.1909   26.9080 C   0  0  0  0  0  0  0  0  0  0  0  0
  -18.3008   15.2388   26.5571 C   0  0  0  0  0  0  0  0  0  0  0  0
  -18.1418   14.3445   25.5045 N   0  0  0  0  0  0  0  0  0  0  0  0
  -19.2443   13.6500   25.5589 C   0  0  0  0  0  0  0  0  0  0  0  0
  -19.5919   12.5715   24.7488 C   0  0  0  0  0  0  0  0  0  0  0  0
  -20.8344   12.0140   24.9517 C   0  0  0  0  0  0  0  0  0  0  0  0
  -21.6871   12.6282   25.8618 C   0  0  0  0  0  0  0  0  0  0  0  0
  -21.3335   13.6739   26.6788 C   0  0  0  0  0  0  0  0  0  0  0  0
  -20.0539   14.1188   26.5024 C   0  0  0  0  0  0  0  0  0  0  0  0
  -19.5082   15.1468   27.0963 N   0  0  0  0  0  0  0  0  0  0  0  0
  -15.9400   13.5087   29.1601 H   0  0  0  0  0  0  0  0  0  0  0  0
  -17.4110   14.4799   29.4492 H   0  0  0  0  0  0  0  0  0  0  0  0
  -17.1891   13.4169   27.9458 H   0  0  0  0  0  0  0  0  0  0  0  0
  -17.7160   17.0054   27.5167 H   0  0  0  0  0  0  0  0  0  0  0  0
  -16.8390   16.6264   26.0246 H   0  0  0  0  0  0  0  0  0  0  0  0
  -17.5389   14.4099   24.6953 H   0  0  0  0  0  0  0  0  0  0  0  0
  -18.8644   12.2302   24.0172 H   0  0  0  0  0  0  0  0  0  0  0  0
  -21.1641   11.1956   24.3166 H   0  0  0  0  0  0  0  0  0  0  0  0
  -22.7089   12.2709   25.9642 H   0  0  0  0  0  0  0  0  0  0  0  0
  -21.9921   14.0931   27.4357 H   0  0  0  0  0  0  0  0  0  0  0  0
  1  2  1  0  0  0  0
  1 15  1  0  0  0  0
  1 16  1  0  0  0  0
  1 17  1  0  0  0  0
  2  3  2  0  0  0  0
  2  4  2  0  0  0  0
  2  5  1  0  0  0  0
  5  6  1  0  0  0  0
  5 18  1  0  0  0  0
  5 19  1  0  0  0  0
  6  7  1  0  0  0  0
  6 14  2  0  0  0  0
  7  8  1  0  0  0  0
  7 20  1  0  0  0  0
  8  9  1  0  0  0  0
  8 13  2  0  0  0  0
  9 10  2  0  0  0  0
  9 21  1  0  0  0  0
 10 11  1  0  0  0  0
 10 22  1  0  0  0  0
 11 12  2  0  0  0  0
 11 23  1  0  0  0  0
 12 13  1  0  0  0  0
 12 24  1  0  0  0  0
 13 14  1  0  0  0  0
M  END
$$$$
