MD_3_clus1
  MOE2019           3D

 17 18  0  0  0  0  0  0  0  0999 V2000
  -18.3714   16.9919   27.1238 O   0  0  0  0  0  0  0  0  0  0  0  0
  -18.2388   15.8774   26.7586 C   0  0  0  0  0  0  0  0  0  0  0  0
  -18.6617   14.5823   27.5400 C   0  0  0  0  0  0  0  0  0  0  0  0
  -18.4347   13.5014   26.4769 C   0  0  0  0  0  0  0  0  0  0  0  0
  -17.8278   14.0369   25.3698 C   0  0  0  0  0  0  0  0  0  0  0  0
  -17.4705   13.2604   24.2696 C   0  0  0  0  0  0  0  0  0  0  0  0
  -17.7637   11.8383   24.4021 C   0  0  0  0  0  0  0  0  0  0  0  0
  -17.2135   10.5934   22.9579 Br  0  0  0  0  0  0  0  0  0  0  0  0
  -18.4268   11.3326   25.5297 C   0  0  0  0  0  0  0  0  0  0  0  0
  -18.8225   12.1811   26.6024 C   0  0  0  0  0  0  0  0  0  0  0  0
  -17.6544   15.4659   25.5983 N   0  0  0  0  0  0  0  0  0  0  0  0
  -18.0598   14.4654   28.4432 H   0  0  0  0  0  0  0  0  0  0  0  0
  -19.6754   14.6168   27.9432 H   0  0  0  0  0  0  0  0  0  0  0  0
  -17.1220   13.7144   23.3454 H   0  0  0  0  0  0  0  0  0  0  0  0
  -18.4325   10.2519   25.6465 H   0  0  0  0  0  0  0  0  0  0  0  0
  -19.1683   11.6754   27.5004 H   0  0  0  0  0  0  0  0  0  0  0  0
  -17.4413   16.0198   24.7827 H   0  0  0  0  0  0  0  0  0  0  0  0
  1  2  2  0  0  0  0
  2  3  1  0  0  0  0
  2 11  1  0  0  0  0
  3  4  1  0  0  0  0
  3 12  1  0  0  0  0
  3 13  1  0  0  0  0
  4  5  1  0  0  0  0
  4 10  2  0  0  0  0
  5  6  2  0  0  0  0
  5 11  1  0  0  0  0
  6  7  1  0  0  0  0
  6 14  1  0  0  0  0
  7  8  1  0  0  0  0
  7  9  2  0  0  0  0
  9 10  1  0  0  0  0
  9 15  1  0  0  0  0
 10 16  1  0  0  0  0
 11 17  1  0  0  0  0
M  END
$$$$
