MD_2_clus1
  MOE2019           3D

 29 31  0  0  0  0  0  0  0  0999 V2000
  -20.2691   20.2371   25.8817 C   0  0  0  0  0  0  0  0  0  0  0  0
  -20.1367   18.8988   26.3534 O   0  0  0  0  0  0  0  0  0  0  0  0
  -21.1449   17.9657   26.4323 C   0  0  0  0  0  0  0  0  0  0  0  0
  -22.4317   18.2541   26.0658 C   0  0  0  0  0  0  0  0  0  0  0  0
  -23.4121   17.2455   26.2402 C   0  0  0  0  0  0  0  0  0  0  0  0
  -23.1382   16.0687   26.8886 C   0  0  0  0  0  0  0  0  0  0  0  0
  -24.0535   15.1538   27.2837 N   0  0  0  0  0  0  0  0  0  0  0  0
  -23.4003   14.2448   28.0357 C   0  0  0  0  0  0  0  0  0  0  0  0
  -24.0980   13.1717   28.5595 N   0  0  0  0  0  0  0  0  0  0  0  0
  -25.4467   12.7995   28.4618 C   0  0  0  0  0  0  0  0  0  0  0  0
  -26.1832   13.5736   27.9222 O   0  0  0  0  0  0  0  0  0  0  0  0
  -25.7902   11.5526   29.2271 C   0  0  0  0  0  0  0  0  0  0  0  0
  -27.1831   11.3214   29.7213 C   0  0  0  0  0  0  0  0  0  0  0  0
  -26.0153   11.4102   30.7276 C   0  0  0  0  0  0  0  0  0  0  0  0
  -21.6680   14.4210   28.2807 S   0  0  0  0  0  0  0  0  0  0  0  0
  -21.8186   15.8404   27.2944 C   0  0  0  0  0  0  0  0  0  0  0  0
  -20.7948   16.7529   26.9725 C   0  0  0  0  0  0  0  0  0  0  0  0
  -19.3178   20.7716   25.9401 H   0  0  0  0  0  0  0  0  0  0  0  0
  -20.7727   20.2421   24.9108 H   0  0  0  0  0  0  0  0  0  0  0  0
  -20.9508   20.7122   26.5924 H   0  0  0  0  0  0  0  0  0  0  0  0
  -22.8480   19.1979   25.7220 H   0  0  0  0  0  0  0  0  0  0  0  0
  -24.4189   17.5905   26.0238 H   0  0  0  0  0  0  0  0  0  0  0  0
  -23.5648   12.4592   29.0348 H   0  0  0  0  0  0  0  0  0  0  0  0
  -25.2893   10.7117   28.7575 H   0  0  0  0  0  0  0  0  0  0  0  0
  -27.8231   12.1971   29.6735 H   0  0  0  0  0  0  0  0  0  0  0  0
  -27.6121   10.3251   29.6602 H   0  0  0  0  0  0  0  0  0  0  0  0
  -25.7169   10.4638   31.1692 H   0  0  0  0  0  0  0  0  0  0  0  0
  -25.8055   12.2833   31.3378 H   0  0  0  0  0  0  0  0  0  0  0  0
  -19.7702   16.5742   27.2912 H   0  0  0  0  0  0  0  0  0  0  0  0
  1  2  1  0  0  0  0
  1 18  1  0  0  0  0
  1 19  1  0  0  0  0
  1 20  1  0  0  0  0
  2  3  1  0  0  0  0
  3  4  1  0  0  0  0
  3 17  2  0  0  0  0
  4  5  2  0  0  0  0
  4 21  1  0  0  0  0
  5  6  1  0  0  0  0
  5 22  1  0  0  0  0
  6  7  1  0  0  0  0
  6 16  2  0  0  0  0
  7  8  2  0  0  0  0
  8  9  1  0  0  0  0
  8 15  1  0  0  0  0
  9 10  1  0  0  0  0
  9 23  1  0  0  0  0
 10 11  2  0  0  0  0
 10 12  1  0  0  0  0
 12 13  1  0  0  0  0
 12 14  1  0  0  0  0
 12 24  1  0  0  0  0
 13 14  1  0  0  0  0
 13 25  1  0  0  0  0
 13 26  1  0  0  0  0
 14 27  1  0  0  0  0
 14 28  1  0  0  0  0
 15 16  1  0  0  0  0
 16 17  1  0  0  0  0
 17 29  1  0  0  0  0
M  END
$$$$
