MD_2_clus2
  MOE2019           3D

 23 24  0  0  0  0  0  0  0  0999 V2000
  -19.5951   16.6413   27.5081 O   0  0  0  0  0  0  0  0  0  0  0  0
  -19.3244   15.4806   27.7995 C   0  0  0  0  0  0  0  0  0  0  0  0
  -18.3031   14.7842   27.1733 N   0  0  0  0  0  0  0  0  0  0  0  0
  -17.6111   13.5599   27.7065 C   0  0  0  0  0  0  0  0  0  0  0  0
  -16.2705   13.5424   26.9838 C   0  0  0  0  0  0  0  0  0  0  0  0
  -16.1168   14.9635   26.3299 C   0  0  0  0  0  0  0  0  0  0  0  0
  -17.4880   15.5496   26.1340 C   0  0  0  0  0  0  0  0  0  0  0  0
  -20.0767   14.8427   28.9024 C   0  0  0  0  0  0  0  0  0  0  0  0
  -20.0729   13.5389   29.4510 C   0  0  0  0  0  0  0  0  0  0  0  0
  -20.9253   13.4259   30.4499 N   0  0  0  0  0  0  0  0  0  0  0  0
  -21.4190   14.7148   30.5937 N   0  0  0  0  0  0  0  0  0  0  0  0
  -20.8585   15.6054   29.7267 C   0  0  0  0  0  0  0  0  0  0  0  0
  -17.4102   13.7795   28.7590 H   0  0  0  0  0  0  0  0  0  0  0  0
  -18.1639   12.6305   27.5446 H   0  0  0  0  0  0  0  0  0  0  0  0
  -15.4836   13.3213   27.7081 H   0  0  0  0  0  0  0  0  0  0  0  0
  -16.2691   12.7075   26.2803 H   0  0  0  0  0  0  0  0  0  0  0  0
  -15.5482   15.6469   26.9636 H   0  0  0  0  0  0  0  0  0  0  0  0
  -15.7986   14.9774   25.2847 H   0  0  0  0  0  0  0  0  0  0  0  0
  -17.9080   15.3780   25.1392 H   0  0  0  0  0  0  0  0  0  0  0  0
  -17.4834   16.6103   26.3974 H   0  0  0  0  0  0  0  0  0  0  0  0
  -19.6308   12.6347   29.0498 H   0  0  0  0  0  0  0  0  0  0  0  0
  -22.1580   14.9429   31.2443 H   0  0  0  0  0  0  0  0  0  0  0  0
  -21.0791   16.6613   29.6360 H   0  0  0  0  0  0  0  0  0  0  0  0
  1  2  2  0  0  0  0
  2  3  1  0  0  0  0
  2  8  1  0  0  0  0
  3  4  1  0  0  0  0
  3  7  1  0  0  0  0
  4  5  1  0  0  0  0
  4 13  1  0  0  0  0
  4 14  1  0  0  0  0
  5  6  1  0  0  0  0
  5 15  1  0  0  0  0
  5 16  1  0  0  0  0
  6  7  1  0  0  0  0
  6 17  1  0  0  0  0
  6 18  1  0  0  0  0
  7 19  1  0  0  0  0
  7 20  1  0  0  0  0
  8  9  1  0  0  0  0
  8 12  2  0  0  0  0
  9 10  2  0  0  0  0
  9 21  1  0  0  0  0
 10 11  1  0  0  0  0
 11 12  1  0  0  0  0
 11 22  1  0  0  0  0
 12 23  1  0  0  0  0
M  END
$$$$
