MD_1_clus1
  MOE2019           3D

 17 18  0  0  0  0  0  0  0  0999 V2000
  -18.2790   17.8279   27.0993 O   0  0  0  0  0  0  0  0  0  0  0  0
  -18.1962   16.6337   27.0883 C   0  0  0  0  0  0  0  0  0  0  0  0
  -18.3839   15.6952   28.2430 C   0  0  0  0  0  0  0  0  0  0  0  0
  -18.2942   14.3053   27.6064 C   0  0  0  0  0  0  0  0  0  0  0  0
  -18.0793   14.5035   26.2960 C   0  0  0  0  0  0  0  0  0  0  0  0
  -17.9866   13.4935   25.4380 C   0  0  0  0  0  0  0  0  0  0  0  0
  -18.1793   12.2279   25.8875 C   0  0  0  0  0  0  0  0  0  0  0  0
  -18.2499   10.7150   24.6051 Br  0  0  0  0  0  0  0  0  0  0  0  0
  -18.4017   12.0210   27.1918 C   0  0  0  0  0  0  0  0  0  0  0  0
  -18.5206   13.0487   28.1493 C   0  0  0  0  0  0  0  0  0  0  0  0
  -18.0207   15.8807   25.9907 N   0  0  0  0  0  0  0  0  0  0  0  0
  -17.5658   15.8410   28.9520 H   0  0  0  0  0  0  0  0  0  0  0  0
  -19.3319   15.8910   28.7501 H   0  0  0  0  0  0  0  0  0  0  0  0
  -17.8255   13.6818   24.3795 H   0  0  0  0  0  0  0  0  0  0  0  0
  -18.3934   10.9659   27.4512 H   0  0  0  0  0  0  0  0  0  0  0  0
  -18.8414   12.8520   29.1693 H   0  0  0  0  0  0  0  0  0  0  0  0
  -17.8016   16.2429   25.0744 H   0  0  0  0  0  0  0  0  0  0  0  0
  1  2  2  0  0  0  0
  2  3  1  0  0  0  0
  2 11  1  0  0  0  0
  3  4  1  0  0  0  0
  3 12  1  0  0  0  0
  3 13  1  0  0  0  0
  4  5  1  0  0  0  0
  4 10  2  0  0  0  0
  5  6  2  0  0  0  0
  5 11  1  0  0  0  0
  6  7  1  0  0  0  0
  6 14  1  0  0  0  0
  7  8  1  0  0  0  0
  7  9  2  0  0  0  0
  9 10  1  0  0  0  0
  9 15  1  0  0  0  0
 10 16  1  0  0  0  0
 11 17  1  0  0  0  0
M  END
$$$$
