MD_2_clus1
  MOE2019           3D

 26 27  0  0  0  0  0  0  0  0999 V2000
  -18.9501   15.1107   27.3218 C   0  0  0  0  0  0  0  0  0  0  0  0
  -20.3073   15.5534   27.3758 C   0  0  0  0  0  0  0  0  0  0  0  0
  -21.1648   14.9548   28.3235 C   0  0  0  0  0  0  0  0  0  0  0  0
  -22.3278   15.5306   28.1581 C   0  0  0  0  0  0  0  0  0  0  0  0
  -23.4050   15.4728   29.2725 C   0  0  0  0  0  0  0  0  0  0  0  0
  -23.6124   14.0098   29.5146 N   0  0  0  0  0  0  0  0  0  0  0  0
  -23.2964   13.5843   30.7780 N   0  0  0  0  0  0  0  0  0  0  0  0
  -23.6102   12.3373   31.1001 C   0  0  0  0  0  0  0  0  0  0  0  0
  -23.2971   11.8525   32.4435 C   0  0  0  0  0  0  0  0  0  0  0  0
  -24.1835   11.4804   30.1379 C   0  0  0  0  0  0  0  0  0  0  0  0
  -24.3698   11.9480   28.8842 C   0  0  0  0  0  0  0  0  0  0  0  0
  -24.1201   13.2640   28.4875 C   0  0  0  0  0  0  0  0  0  0  0  0
  -24.3092   13.7238   27.3541 O   0  0  0  0  0  0  0  0  0  0  0  0
  -22.3317   16.3854   27.1023 O   0  0  0  0  0  0  0  0  0  0  0  0
  -20.9697   16.4031   26.5877 N   0  0  0  0  0  0  0  0  0  0  0  0
  -18.4117   15.4613   28.2050 H   0  0  0  0  0  0  0  0  0  0  0  0
  -18.8519   14.0461   27.1032 H   0  0  0  0  0  0  0  0  0  0  0  0
  -18.5278   15.5841   26.4324 H   0  0  0  0  0  0  0  0  0  0  0  0
  -21.0601   14.2467   29.1378 H   0  0  0  0  0  0  0  0  0  0  0  0
  -23.0715   16.0120   30.1624 H   0  0  0  0  0  0  0  0  0  0  0  0
  -24.3939   15.8421   28.9866 H   0  0  0  0  0  0  0  0  0  0  0  0
  -22.8265   10.8683   32.4848 H   0  0  0  0  0  0  0  0  0  0  0  0
  -22.5135   12.4540   32.9098 H   0  0  0  0  0  0  0  0  0  0  0  0
  -24.0834   11.9894   33.1884 H   0  0  0  0  0  0  0  0  0  0  0  0
  -24.4457   10.4632   30.4071 H   0  0  0  0  0  0  0  0  0  0  0  0
  -24.7998   11.3299   28.1023 H   0  0  0  0  0  0  0  0  0  0  0  0
  1  2  1  0  0  0  0
  1 16  1  0  0  0  0
  1 17  1  0  0  0  0
  1 18  1  0  0  0  0
  2  3  1  0  0  0  0
  2 15  2  0  0  0  0
  3  4  2  0  0  0  0
  3 19  1  0  0  0  0
  4  5  1  0  0  0  0
  4 14  1  0  0  0  0
  5  6  1  0  0  0  0
  5 20  1  0  0  0  0
  5 21  1  0  0  0  0
  6  7  1  0  0  0  0
  6 12  1  0  0  0  0
  7  8  2  0  0  0  0
  8  9  1  0  0  0  0
  8 10  1  0  0  0  0
  9 22  1  0  0  0  0
  9 23  1  0  0  0  0
  9 24  1  0  0  0  0
 10 11  2  0  0  0  0
 10 25  1  0  0  0  0
 11 12  1  0  0  0  0
 11 26  1  0  0  0  0
 12 13  2  0  0  0  0
 14 15  1  0  0  0  0
M  END
$$$$
