MD_1_clus6
  MOE2019           3D

 23 23  0  0  0  0  0  0  0  0999 V2000
  -17.7107   12.4594   24.9803 C   0  0  0  0  0  0  0  0  0  0  0  0
  -18.4197   13.6749   25.7089 C   0  0  0  0  0  0  0  0  0  0  0  0
  -18.3227   14.8996   24.8110 C   0  0  0  0  0  0  0  0  0  0  0  0
  -19.8775   13.4840   26.1337 C   0  0  0  0  0  0  0  0  0  0  0  0
  -20.1847   14.0395   27.3039 N   0  0  0  0  0  0  0  0  0  0  0  0
  -21.3760   13.6826   27.8761 C   0  0  0  0  0  0  0  0  0  0  0  0
  -22.2327   12.8970   27.2084 C   0  0  0  0  0  0  0  0  0  0  0  0
  -23.8453   12.9472   27.8565 C   0  0  0  0  0  0  0  0  0  0  0  0
  -21.9460   12.5439   25.8928 C   0  0  0  0  0  0  0  0  0  0  0  0
  -20.7213   12.8315   25.3340 N   0  0  0  0  0  0  0  0  0  0  0  0
  -22.9270   11.8970   24.9382 C   0  0  0  0  0  0  0  0  0  0  0  0
  -24.0656   11.5503   25.2058 O   0  0  0  0  0  0  0  0  0  0  0  0
  -22.5113   11.6860   23.7368 N   0  0  0  0  0  0  0  0  0  0  0  0
  -16.6310   12.5741   24.8626 H   0  0  0  0  0  0  0  0  0  0  0  0
  -17.8828   11.5052   25.4813 H   0  0  0  0  0  0  0  0  0  0  0  0
  -18.1524   12.3354   23.9897 H   0  0  0  0  0  0  0  0  0  0  0  0
  -17.9335   13.8868   26.6628 H   0  0  0  0  0  0  0  0  0  0  0  0
  -18.7133   15.7944   25.2987 H   0  0  0  0  0  0  0  0  0  0  0  0
  -17.2772   14.9976   24.5127 H   0  0  0  0  0  0  0  0  0  0  0  0
  -18.9361   14.8901   23.9076 H   0  0  0  0  0  0  0  0  0  0  0  0
  -21.7232   14.3151   28.6900 H   0  0  0  0  0  0  0  0  0  0  0  0
  -23.0567   11.2965   22.9822 H   0  0  0  0  0  0  0  0  0  0  0  0
  -21.5996   12.0441   23.4941 H   0  0  0  0  0  0  0  0  0  0  0  0
  1  2  1  0  0  0  0
  1 14  1  0  0  0  0
  1 15  1  0  0  0  0
  1 16  1  0  0  0  0
  2  3  1  0  0  0  0
  2  4  1  0  0  0  0
  2 17  1  0  0  0  0
  3 18  1  0  0  0  0
  3 19  1  0  0  0  0
  3 20  1  0  0  0  0
  4  5  1  0  0  0  0
  4 10  2  0  0  0  0
  5  6  2  0  0  0  0
  6  7  1  0  0  0  0
  6 21  1  0  0  0  0
  7  8  1  0  0  0  0
  7  9  2  0  0  0  0
  9 10  1  0  0  0  0
  9 11  1  0  0  0  0
 11 12  2  0  0  0  0
 11 13  1  0  0  0  0
 13 22  1  0  0  0  0
 13 23  1  0  0  0  0
M  END
$$$$
