MD_1_clus5
  MOE2019           3D

 23 23  0  0  0  0  0  0  0  0999 V2000
  -17.6540   16.9328   28.0842 C   0  0  0  0  0  0  0  0  0  0  0  0
  -18.8713   16.1152   28.5702 C   0  0  0  0  0  0  0  0  0  0  0  0
  -19.9904   17.2136   28.8390 C   0  0  0  0  0  0  0  0  0  0  0  0
  -19.3477   14.9237   27.7933 C   0  0  0  0  0  0  0  0  0  0  0  0
  -20.4811   14.2499   28.2020 N   0  0  0  0  0  0  0  0  0  0  0  0
  -20.8827   13.2948   27.3860 C   0  0  0  0  0  0  0  0  0  0  0  0
  -20.0650   12.8610   26.3790 C   0  0  0  0  0  0  0  0  0  0  0  0
  -20.7899   11.5376   25.5115 C   0  0  0  0  0  0  0  0  0  0  0  0
  -18.8820   13.5192   26.0066 C   0  0  0  0  0  0  0  0  0  0  0  0
  -18.5916   14.6293   26.7357 N   0  0  0  0  0  0  0  0  0  0  0  0
  -17.8908   13.0389   24.9224 C   0  0  0  0  0  0  0  0  0  0  0  0
  -17.8021   11.9331   24.5105 O   0  0  0  0  0  0  0  0  0  0  0  0
  -17.0783   13.8820   24.3929 N   0  0  0  0  0  0  0  0  0  0  0  0
  -17.9478   17.2862   27.0944 H   0  0  0  0  0  0  0  0  0  0  0  0
  -17.3548   17.7959   28.6813 H   0  0  0  0  0  0  0  0  0  0  0  0
  -16.8356   16.2650   27.8066 H   0  0  0  0  0  0  0  0  0  0  0  0
  -18.6526   15.6885   29.5516 H   0  0  0  0  0  0  0  0  0  0  0  0
  -20.0651   17.8882   27.9843 H   0  0  0  0  0  0  0  0  0  0  0  0
  -20.9803   16.7520   28.8658 H   0  0  0  0  0  0  0  0  0  0  0  0
  -19.8007   17.8862   29.6791 H   0  0  0  0  0  0  0  0  0  0  0  0
  -21.7808   12.7863   27.7303 H   0  0  0  0  0  0  0  0  0  0  0  0
  -16.3752   13.6427   23.7108 H   0  0  0  0  0  0  0  0  0  0  0  0
  -17.0683   14.8703   24.5995 H   0  0  0  0  0  0  0  0  0  0  0  0
  1  2  1  0  0  0  0
  1 14  1  0  0  0  0
  1 15  1  0  0  0  0
  1 16  1  0  0  0  0
  2  3  1  0  0  0  0
  2  4  1  0  0  0  0
  2 17  1  0  0  0  0
  3 18  1  0  0  0  0
  3 19  1  0  0  0  0
  3 20  1  0  0  0  0
  4  5  1  0  0  0  0
  4 10  2  0  0  0  0
  5  6  2  0  0  0  0
  6  7  1  0  0  0  0
  6 21  1  0  0  0  0
  7  8  1  0  0  0  0
  7  9  2  0  0  0  0
  9 10  1  0  0  0  0
  9 11  1  0  0  0  0
 11 12  2  0  0  0  0
 11 13  1  0  0  0  0
 13 22  1  0  0  0  0
 13 23  1  0  0  0  0
M  END
$$$$
