MD_2_clus0
  MOE2019           3D

 23 24  0  0  1  0  0  0  0  0999 V2000
  -17.3681   14.2389   28.3456 C   0  0  0  0  0  0  0  0  0  0  0  0
  -18.6572   14.0082   29.0577 N   0  3  0  0  0  0  0  0  0  0  0  0
  -18.8197   13.0139   30.0174 N   0  5  0  0  0  0  0  0  0  0  0  0
  -19.9825   13.3137   30.6147 N   0  0  0  0  0  0  0  0  0  0  0  0
  -20.4771   14.4582   30.1218 C   0  0  0  0  0  0  0  0  0  0  0  0
  -21.8515   14.9645   30.3513 C   0  0  0  0  0  0  0  0  0  0  0  0
  -21.8667   16.3483   29.8065 C   0  0  0  0  0  0  0  0  0  0  0  0
  -21.5025   16.3345   28.2696 C   0  0  3  0  0  0  0  0  0  0  0  0
  -20.0219   15.8118   28.0853 C   0  0  0  0  0  0  0  0  0  0  0  0
  -19.6351   14.8481   29.1163 C   0  0  0  0  0  0  0  0  0  0  0  0
  -21.8471   17.6848   27.6208 C   0  0  0  0  0  0  0  0  0  0  0  0
  -21.1173   18.6446   27.7109 O   0  0  0  0  0  0  0  0  0  0  0  0
  -22.9120   17.7397   27.0662 O   0  5  0  0  0  0  0  0  0  0  0  0
  -17.4784   13.9212   27.3061 H   0  0  0  0  0  0  0  0  0  0  0  0
  -17.2075   15.3189   28.4021 H   0  0  0  0  0  0  0  0  0  0  0  0
  -16.4676   13.7841   28.7657 H   0  0  0  0  0  0  0  0  0  0  0  0
  -22.5955   14.4087   29.7765 H   0  0  0  0  0  0  0  0  0  0  0  0
  -22.0942   14.8116   31.4047 H   0  0  0  0  0  0  0  0  0  0  0  0
  -22.8630   16.7524   30.0014 H   0  0  0  0  0  0  0  0  0  0  0  0
  -21.2155   16.9547   30.4390 H   0  0  0  0  0  0  0  0  0  0  0  0
  -22.1990   15.6292   27.8122 H   0  0  0  0  0  0  0  0  0  0  0  0
  -19.9221   15.3949   27.0802 H   0  0  0  0  0  0  0  0  0  0  0  0
  -19.3627   16.6780   28.1763 H   0  0  0  0  0  0  0  0  0  0  0  0
  1  2  1  0  0  0  0
  1 14  1  0  0  0  0
  1 15  1  0  0  0  0
  1 16  1  0  0  0  0
  2  3  1  0  0  0  0
  2 10  2  0  0  0  0
  3  4  1  0  0  0  0
  4  5  2  0  0  0  0
  5  6  1  0  0  0  0
  5 10  1  0  0  0  0
  6  7  1  0  0  0  0
  6 17  1  0  0  0  0
  6 18  1  0  0  0  0
  7  8  1  0  0  0  0
  7 19  1  0  0  0  0
  7 20  1  0  0  0  0
  8  9  1  0  0  0  0
  8 11  1  0  0  0  0
  8 21  1  0  0  0  0
  9 10  1  0  0  0  0
  9 22  1  0  0  0  0
  9 23  1  0  0  0  0
 11 12  2  0  0  0  0
 11 13  1  0  0  0  0
M  CHG  1   2   1
M  CHG  1   3  -1
M  CHG  1  13  -1
M  END
$$$$
