MD_3_clus0
  MOE2019           3D

 22 22  0  0  0  0  0  0  0  0999 V2000
  -18.1162   15.2347   28.0882 C   0  0  0  0  0  0  0  0  0  0  0  0
  -18.3508   15.4000   26.5633 C   0  0  0  0  0  0  0  0  0  0  0  0
  -18.9060   14.2141   25.9390 N   0  0  0  0  0  0  0  0  0  0  0  0
  -20.2820   13.9446   26.0031 C   0  0  0  0  0  0  0  0  0  0  0  0
  -20.4932   12.9579   25.0969 C   0  0  0  0  0  0  0  0  0  0  0  0
  -21.8271   12.2204   24.8189 C   0  0  0  0  0  0  0  0  0  0  0  0
  -22.9989   12.4490   25.7581 C   0  0  0  0  0  0  0  0  0  0  0  0
  -22.9990   11.5780   26.9012 O   0  0  0  0  0  0  0  0  0  0  0  0
  -19.2347   12.6484   24.5090 C   0  0  0  0  0  0  0  0  0  0  0  0
  -18.2495   13.3861   25.1348 N   0  0  0  0  0  0  0  0  0  0  0  0
  -19.0975   15.2570   28.5675 H   0  0  0  0  0  0  0  0  0  0  0  0
  -17.5609   14.3126   28.2707 H   0  0  0  0  0  0  0  0  0  0  0  0
  -17.5126   16.0802   28.4277 H   0  0  0  0  0  0  0  0  0  0  0  0
  -19.0088   16.2500   26.3662 H   0  0  0  0  0  0  0  0  0  0  0  0
  -17.3930   15.6727   26.1126 H   0  0  0  0  0  0  0  0  0  0  0  0
  -20.9268   14.3996   26.7440 H   0  0  0  0  0  0  0  0  0  0  0  0
  -22.2419   12.6878   23.9226 H   0  0  0  0  0  0  0  0  0  0  0  0
  -21.7524   11.1358   24.7145 H   0  0  0  0  0  0  0  0  0  0  0  0
  -22.9345   13.4553   26.1800 H   0  0  0  0  0  0  0  0  0  0  0  0
  -23.9279   12.2880   25.2072 H   0  0  0  0  0  0  0  0  0  0  0  0
  -22.6921   12.1893   27.5944 H   0  0  0  0  0  0  0  0  0  0  0  0
  -19.0005   11.7953   23.8836 H   0  0  0  0  0  0  0  0  0  0  0  0
  1  2  1  0  0  0  0
  1 11  1  0  0  0  0
  1 12  1  0  0  0  0
  1 13  1  0  0  0  0
  2  3  1  0  0  0  0
  2 14  1  0  0  0  0
  2 15  1  0  0  0  0
  3  4  1  0  0  0  0
  3 10  1  0  0  0  0
  4  5  2  0  0  0  0
  4 16  1  0  0  0  0
  5  6  1  0  0  0  0
  5  9  1  0  0  0  0
  6  7  1  0  0  0  0
  6 17  1  0  0  0  0
  6 18  1  0  0  0  0
  7  8  1  0  0  0  0
  7 19  1  0  0  0  0
  7 20  1  0  0  0  0
  8 21  1  0  0  0  0
  9 10  2  0  0  0  0
  9 22  1  0  0  0  0
M  END
$$$$
