MD_3_clus0
  MOE2019           3D

 14 14  0  0  0  0  0  0  0  0999 V2000
  -22.6002   15.2421   29.4253 C   0  0  0  0  0  0  0  0  0  0  0  0
  -23.1444   13.9203   28.8723 C   0  0  0  0  0  0  0  0  0  0  0  0
  -22.4644   12.6933   29.2415 C   0  0  0  0  0  0  0  0  0  0  0  0
  -23.1200   11.5432   28.8240 C   0  0  0  0  0  0  0  0  0  0  0  0
  -24.5183   12.0230   27.8255 S   0  0  0  0  0  0  0  0  0  0  0  0
  -24.2200   13.7277   28.0666 C   0  0  0  0  0  0  0  0  0  0  0  0
  -25.0740   14.7328   27.3908 C   0  0  0  0  0  0  0  0  0  0  0  0
  -24.8363   15.9299   27.4506 O   0  0  0  0  0  0  0  0  0  0  0  0
  -26.0755   14.3290   26.8476 O   0  5  0  0  0  0  0  0  0  0  0  0
  -21.6411   15.4677   28.9553 H   0  0  0  0  0  0  0  0  0  0  0  0
  -23.3573   16.0273   29.3695 H   0  0  0  0  0  0  0  0  0  0  0  0
  -22.2870   15.1295   30.4651 H   0  0  0  0  0  0  0  0  0  0  0  0
  -21.5138   12.6410   29.7612 H   0  0  0  0  0  0  0  0  0  0  0  0
  -22.8140   10.5250   29.0290 H   0  0  0  0  0  0  0  0  0  0  0  0
  1  2  1  0  0  0  0
  1 10  1  0  0  0  0
  1 11  1  0  0  0  0
  1 12  1  0  0  0  0
  2  3  1  0  0  0  0
  2  6  2  0  0  0  0
  3  4  2  0  0  0  0
  3 13  1  0  0  0  0
  4  5  1  0  0  0  0
  4 14  1  0  0  0  0
  5  6  1  0  0  0  0
  6  7  1  0  0  0  0
  7  8  2  0  0  0  0
  7  9  1  0  0  0  0
M  CHG  1   9  -1
M  END
$$$$
