MD_2_clus3
  MOE2019           3D

 31 32  0  0  0  0  0  0  0  0999 V2000
  -16.6869   11.5920   22.1581 C   0  0  0  0  0  0  0  0  0  0  0  0
  -16.3088   12.5452   23.2918 C   0  0  0  0  0  0  0  0  0  0  0  0
  -17.4208   12.7552   24.2159 N   0  0  0  0  0  0  0  0  0  0  0  0
  -17.6164   13.8994   24.9649 C   0  0  0  0  0  0  0  0  0  0  0  0
  -18.5731   13.5084   25.8615 C   0  0  0  0  0  0  0  0  0  0  0  0
  -19.2352   14.4183   26.8942 C   0  0  0  0  0  0  0  0  0  0  0  0
  -18.3377   15.3996   27.4737 N   0  0  0  0  0  0  0  0  0  0  0  0
  -18.6833   16.6676   27.6688 C   0  0  0  0  0  0  0  0  0  0  0  0
  -19.6517   17.1174   27.1668 O   0  0  0  0  0  0  0  0  0  0  0  0
  -17.7622   17.6090   28.2875 C   0  0  0  0  0  0  0  0  0  0  0  0
  -17.9514   18.9419   28.3451 C   0  0  0  0  0  0  0  0  0  0  0  0
  -16.9291   19.7187   28.9164 C   0  0  0  0  0  0  0  0  0  0  0  0
  -15.8379   19.1559   29.5860 C   0  0  0  0  0  0  0  0  0  0  0  0
  -15.6665   17.8240   29.5278 N   0  0  0  0  0  0  0  0  0  0  0  0
  -16.6190   17.0824   28.8273 C   0  0  0  0  0  0  0  0  0  0  0  0
  -19.0547   12.2346   25.4862 C   0  0  0  0  0  0  0  0  0  0  0  0
  -18.2814   11.7335   24.4971 N   0  0  0  0  0  0  0  0  0  0  0  0
  -15.9776   11.6391   21.3297 H   0  0  0  0  0  0  0  0  0  0  0  0
  -16.7610   10.5355   22.4236 H   0  0  0  0  0  0  0  0  0  0  0  0
  -17.6147   11.8597   21.6474 H   0  0  0  0  0  0  0  0  0  0  0  0
  -15.4760   12.2000   23.9111 H   0  0  0  0  0  0  0  0  0  0  0  0
  -15.9089   13.4430   22.8135 H   0  0  0  0  0  0  0  0  0  0  0  0
  -17.1426   14.8428   24.7228 H   0  0  0  0  0  0  0  0  0  0  0  0
  -20.1124   14.8973   26.4513 H   0  0  0  0  0  0  0  0  0  0  0  0
  -19.7140   13.9459   27.7557 H   0  0  0  0  0  0  0  0  0  0  0  0
  -17.4840   15.0393   27.8741 H   0  0  0  0  0  0  0  0  0  0  0  0
  -18.7722   19.4127   27.8091 H   0  0  0  0  0  0  0  0  0  0  0  0
  -17.0517   20.7981   28.8922 H   0  0  0  0  0  0  0  0  0  0  0  0
  -15.1151   19.7436   30.1480 H   0  0  0  0  0  0  0  0  0  0  0  0
  -16.5070   16.0095   28.9718 H   0  0  0  0  0  0  0  0  0  0  0  0
  -19.8754   11.6722   25.9129 H   0  0  0  0  0  0  0  0  0  0  0  0
  1  2  1  0  0  0  0
  1 18  1  0  0  0  0
  1 19  1  0  0  0  0
  1 20  1  0  0  0  0
  2  3  1  0  0  0  0
  2 21  1  0  0  0  0
  2 22  1  0  0  0  0
  3  4  1  0  0  0  0
  3 17  1  0  0  0  0
  4  5  2  0  0  0  0
  4 23  1  0  0  0  0
  5  6  1  0  0  0  0
  5 16  1  0  0  0  0
  6  7  1  0  0  0  0
  6 24  1  0  0  0  0
  6 25  1  0  0  0  0
  7  8  1  0  0  0  0
  7 26  1  0  0  0  0
  8  9  2  0  0  0  0
  8 10  1  0  0  0  0
 10 11  1  0  0  0  0
 10 15  2  0  0  0  0
 11 12  2  0  0  0  0
 11 27  1  0  0  0  0
 12 13  1  0  0  0  0
 12 28  1  0  0  0  0
 13 14  2  0  0  0  0
 13 29  1  0  0  0  0
 14 15  1  0  0  0  0
 15 30  1  0  0  0  0
 16 17  2  0  0  0  0
 16 31  1  0  0  0  0
M  END
$$$$
