MD_2_clus0
  MOE2019           3D

 23 24  0  0  0  0  0  0  0  0999 V2000
  -22.1294   16.1906   31.5114 C   0  0  0  0  0  0  0  0  0  0  0  0
  -22.4743   17.6834   31.3728 N   0  3  0  0  0  0  0  0  0  0  0  0
  -22.6349   17.9733   29.8570 C   0  0  0  0  0  0  0  0  0  0  0  0
  -23.1262   19.3768   29.5530 C   0  0  0  0  0  0  0  0  0  0  0  0
  -24.2364   19.9003   29.9622 N   0  0  0  0  0  0  0  0  0  0  0  0
  -24.3105   21.2250   29.4926 N   0  0  0  0  0  0  0  0  0  0  0  0
  -23.1165   21.4016   28.9325 C   0  0  0  0  0  0  0  0  0  0  0  0
  -22.5292   22.5979   28.2597 C   0  0  0  0  0  0  0  0  0  0  0  0
  -21.2927   22.5331   27.7358 C   0  0  0  0  0  0  0  0  0  0  0  0
  -20.4976   21.3693   27.9652 C   0  0  0  0  0  0  0  0  0  0  0  0
  -21.0025   20.3240   28.7412 C   0  0  0  0  0  0  0  0  0  0  0  0
  -22.4065   20.2815   28.8413 N   0  0  0  0  0  0  0  0  0  0  0  0
  -21.8831   15.9451   32.5460 H   0  0  0  0  0  0  0  0  0  0  0  0
  -22.9019   15.4599   31.2687 H   0  0  0  0  0  0  0  0  0  0  0  0
  -21.1790   16.0367   30.9974 H   0  0  0  0  0  0  0  0  0  0  0  0
  -23.2614   18.0306   31.9452 H   0  0  0  0  0  0  0  0  0  0  0  0
  -21.6083   17.8537   29.5072 H   0  0  0  0  0  0  0  0  0  0  0  0
  -23.3799   17.2706   29.4807 H   0  0  0  0  0  0  0  0  0  0  0  0
  -23.1266   23.5000   28.1807 H   0  0  0  0  0  0  0  0  0  0  0  0
  -20.9277   23.3227   27.0880 H   0  0  0  0  0  0  0  0  0  0  0  0
  -19.4548   21.3495   27.6674 H   0  0  0  0  0  0  0  0  0  0  0  0
  -20.5630   19.5025   29.2936 H   0  0  0  0  0  0  0  0  0  0  0  0
  -21.6607   18.1862   31.7635 H   0  0  0  0  0  0  0  0  0  0  0  0
  1  2  1  0  0  0  0
  1 13  1  0  0  0  0
  1 14  1  0  0  0  0
  1 15  1  0  0  0  0
  2  3  1  0  0  0  0
  2 16  1  0  0  0  0
  2 23  1  0  0  0  0
  3  4  1  0  0  0  0
  3 17  1  0  0  0  0
  3 18  1  0  0  0  0
  4  5  2  0  0  0  0
  4 12  1  0  0  0  0
  5  6  1  0  0  0  0
  6  7  2  0  0  0  0
  7  8  1  0  0  0  0
  7 12  1  0  0  0  0
  8  9  2  0  0  0  0
  8 19  1  0  0  0  0
  9 10  1  0  0  0  0
  9 20  1  0  0  0  0
 10 11  2  0  0  0  0
 10 21  1  0  0  0  0
 11 12  1  0  0  0  0
 11 22  1  0  0  0  0
M  CHG  1   2   1
M  END
$$$$
