MD_3_clus7
  MOE2019           3D

 29 30  0  0  0  0  0  0  0  0999 V2000
  -17.1683   17.7511   27.6073 C   0  0  0  0  0  0  0  0  0  0  0  0
  -17.8743   16.4631   27.7349 N   0  0  0  0  0  0  0  0  0  0  0  0
  -19.1528   16.2446   28.1955 C   0  0  0  0  0  0  0  0  0  0  0  0
  -19.8837   17.1609   28.5046 O   0  0  0  0  0  0  0  0  0  0  0  0
  -19.4551   14.8037   27.9755 C   0  0  0  0  0  0  0  0  0  0  0  0
  -19.7661   14.4015   26.5424 C   0  0  0  0  0  0  0  0  0  0  0  0
  -18.6394   13.6259   25.8110 C   0  0  0  0  0  0  0  0  0  0  0  0
  -17.5596   14.3425   25.2186 C   0  0  0  0  0  0  0  0  0  0  0  0
  -16.5132   13.6428   24.6243 C   0  0  0  0  0  0  0  0  0  0  0  0
  -16.5333   12.2540   24.5636 C   0  0  0  0  0  0  0  0  0  0  0  0
  -17.6579   11.5898   24.9363 C   0  0  0  0  0  0  0  0  0  0  0  0
  -18.7221   12.2843   25.5759 C   0  0  0  0  0  0  0  0  0  0  0  0
  -19.8692   11.6906   25.9602 F   0  0  0  0  0  0  0  0  0  0  0  0
  -18.5765   13.9331   28.8706 C   0  0  0  0  0  0  0  0  0  0  0  0
  -20.0424   13.9926   29.1338 C   0  0  0  0  0  0  0  0  0  0  0  0
  -16.1321   17.6379   27.9357 H   0  0  0  0  0  0  0  0  0  0  0  0
  -17.0042   18.0425   26.5669 H   0  0  0  0  0  0  0  0  0  0  0  0
  -17.5017   18.6130   28.1908 H   0  0  0  0  0  0  0  0  0  0  0  0
  -17.4287   15.6680   27.3026 H   0  0  0  0  0  0  0  0  0  0  0  0
  -20.6699   13.7905   26.5785 H   0  0  0  0  0  0  0  0  0  0  0  0
  -20.1285   15.2260   25.9250 H   0  0  0  0  0  0  0  0  0  0  0  0
  -17.6337   15.4221   25.1118 H   0  0  0  0  0  0  0  0  0  0  0  0
  -15.6815   14.1500   24.1425 H   0  0  0  0  0  0  0  0  0  0  0  0
  -15.6799   11.7588   24.1075 H   0  0  0  0  0  0  0  0  0  0  0  0
  -17.8272   10.5215   24.8243 H   0  0  0  0  0  0  0  0  0  0  0  0
  -18.1480   13.0599   28.3872 H   0  0  0  0  0  0  0  0  0  0  0  0
  -17.9461   14.4008   29.6212 H   0  0  0  0  0  0  0  0  0  0  0  0
  -20.4041   14.5509   29.9924 H   0  0  0  0  0  0  0  0  0  0  0  0
  -20.6357   13.1598   28.7670 H   0  0  0  0  0  0  0  0  0  0  0  0
  1  2  1  0  0  0  0
  1 16  1  0  0  0  0
  1 17  1  0  0  0  0
  1 18  1  0  0  0  0
  2  3  1  0  0  0  0
  2 19  1  0  0  0  0
  3  4  2  0  0  0  0
  3  5  1  0  0  0  0
  5  6  1  0  0  0  0
  5 14  1  0  0  0  0
  5 15  1  0  0  0  0
  6  7  1  0  0  0  0
  6 20  1  0  0  0  0
  6 21  1  0  0  0  0
  7  8  1  0  0  0  0
  7 12  2  0  0  0  0
  8  9  2  0  0  0  0
  8 22  1  0  0  0  0
  9 10  1  0  0  0  0
  9 23  1  0  0  0  0
 10 11  2  0  0  0  0
 10 24  1  0  0  0  0
 11 12  1  0  0  0  0
 11 25  1  0  0  0  0
 12 13  1  0  0  0  0
 14 15  1  0  0  0  0
 14 26  1  0  0  0  0
 14 27  1  0  0  0  0
 15 28  1  0  0  0  0
 15 29  1  0  0  0  0
M  END
$$$$
