MD_3_clus4
  MOE2019           3D

 19 19  0  0  0  0  0  0  0  0999 V2000
  -18.3714   14.6765   25.3714 C   0  0  0  0  0  0  0  0  0  0  0  0
  -18.4419   13.8466   26.5877 N   0  0  0  0  0  0  0  0  0  0  0  0
  -18.7791   12.4253   26.4075 C   0  0  0  0  0  0  0  0  0  0  0  0
  -18.2499   14.4389   27.7866 C   0  0  0  0  0  0  0  0  0  0  0  0
  -18.0577   15.6628   27.7639 O   0  0  0  0  0  0  0  0  0  0  0  0
  -18.3574   13.7528   29.1141 C   0  0  0  0  0  0  0  0  0  0  0  0
  -18.4333   12.3578   29.4076 C   0  0  0  0  0  0  0  0  0  0  0  0
  -18.4312   12.1643   30.7574 N   0  0  0  0  0  0  0  0  0  0  0  0
  -18.1903   13.3715   31.2913 N   0  0  0  0  0  0  0  0  0  0  0  0
  -18.1930   14.3726   30.3228 C   0  0  0  0  0  0  0  0  0  0  0  0
  -18.5885   14.2150   24.4059 H   0  0  0  0  0  0  0  0  0  0  0  0
  -19.1301   15.4550   25.4886 H   0  0  0  0  0  0  0  0  0  0  0  0
  -17.4260   15.2059   25.2296 H   0  0  0  0  0  0  0  0  0  0  0  0
  -19.0149   12.2568   25.3535 H   0  0  0  0  0  0  0  0  0  0  0  0
  -19.6460   12.2360   27.0454 H   0  0  0  0  0  0  0  0  0  0  0  0
  -17.8999   11.8713   26.7464 H   0  0  0  0  0  0  0  0  0  0  0  0
  -18.7410   11.5979   28.6996 H   0  0  0  0  0  0  0  0  0  0  0  0
  -18.1364   13.4260   32.2989 H   0  0  0  0  0  0  0  0  0  0  0  0
  -17.8708   15.3647   30.6111 H   0  0  0  0  0  0  0  0  0  0  0  0
  1  2  1  0  0  0  0
  1 11  1  0  0  0  0
  1 12  1  0  0  0  0
  1 13  1  0  0  0  0
  2  3  1  0  0  0  0
  2  4  1  0  0  0  0
  3 14  1  0  0  0  0
  3 15  1  0  0  0  0
  3 16  1  0  0  0  0
  4  5  2  0  0  0  0
  4  6  1  0  0  0  0
  6  7  1  0  0  0  0
  6 10  2  0  0  0  0
  7  8  2  0  0  0  0
  7 17  1  0  0  0  0
  8  9  1  0  0  0  0
  9 10  1  0  0  0  0
  9 18  1  0  0  0  0
 10 19  1  0  0  0  0
M  END
$$$$
