MD_3_clus2
  MOE2019           3D

 35 37  0  0  0  0  0  0  0  0999 V2000
  -15.5786   20.3636   27.0130 F   0  0  0  0  0  0  0  0  0  0  0  0
  -16.1160   19.1413   26.8498 C   0  0  0  0  0  0  0  0  0  0  0  0
  -17.4312   18.8643   27.2684 C   0  0  0  0  0  0  0  0  0  0  0  0
  -17.9644   17.5885   27.1513 C   0  0  0  0  0  0  0  0  0  0  0  0
  -17.3390   16.5867   26.4652 C   0  0  0  0  0  0  0  0  0  0  0  0
  -16.1181   16.9265   25.9472 C   0  0  0  0  0  0  0  0  0  0  0  0
  -15.4672   18.1327   26.1883 C   0  0  0  0  0  0  0  0  0  0  0  0
  -18.0141   15.3854   26.1420 N   0  0  0  0  0  0  0  0  0  0  0  0
  -17.7737   14.5511   24.9826 C   0  0  0  0  0  0  0  0  0  0  0  0
  -19.0004   13.7499   24.5542 C   0  0  0  0  0  0  0  0  0  0  0  0
  -19.9133   13.2747   25.6046 N   0  0  0  0  0  0  0  0  0  0  0  0
  -19.8655   13.9481   26.8856 C   0  0  0  0  0  0  0  0  0  0  0  0
  -18.5693   14.6534   27.2839 C   0  0  0  0  0  0  0  0  0  0  0  0
  -20.9247   12.4487   25.1842 C   0  0  0  0  0  0  0  0  0  0  0  0
  -20.8717   11.9577   24.0828 O   0  0  0  0  0  0  0  0  0  0  0  0
  -22.0578   12.2351   26.0562 C   0  0  0  0  0  0  0  0  0  0  0  0
  -22.3160   10.7727   26.4108 C   0  0  0  0  0  0  0  0  0  0  0  0
  -23.3736   11.5030   25.6174 C   0  0  0  0  0  0  0  0  0  0  0  0
  -18.0363   19.6803   27.6559 H   0  0  0  0  0  0  0  0  0  0  0  0
  -18.9418   17.4157   27.5938 H   0  0  0  0  0  0  0  0  0  0  0  0
  -15.6711   16.1670   25.3120 H   0  0  0  0  0  0  0  0  0  0  0  0
  -14.5364   18.2420   25.6376 H   0  0  0  0  0  0  0  0  0  0  0  0
  -17.5056   15.0998   24.0764 H   0  0  0  0  0  0  0  0  0  0  0  0
  -16.9363   13.8947   25.2368 H   0  0  0  0  0  0  0  0  0  0  0  0
  -19.5506   14.4259   23.8951 H   0  0  0  0  0  0  0  0  0  0  0  0
  -18.7047   12.8748   23.9707 H   0  0  0  0  0  0  0  0  0  0  0  0
  -20.6701   14.6787   27.0047 H   0  0  0  0  0  0  0  0  0  0  0  0
  -20.0495   13.1903   27.6511 H   0  0  0  0  0  0  0  0  0  0  0  0
  -17.7719   13.9718   27.5931 H   0  0  0  0  0  0  0  0  0  0  0  0
  -18.9705   15.2761   28.0881 H   0  0  0  0  0  0  0  0  0  0  0  0
  -22.2340   13.0753   26.7214 H   0  0  0  0  0  0  0  0  0  0  0  0
  -21.7648    9.9118   26.0432 H   0  0  0  0  0  0  0  0  0  0  0  0
  -22.5646   10.6258   27.4579 H   0  0  0  0  0  0  0  0  0  0  0  0
  -24.2751   11.3408   26.2013 H   0  0  0  0  0  0  0  0  0  0  0  0
  -23.5993   11.3827   24.5622 H   0  0  0  0  0  0  0  0  0  0  0  0
  1  2  1  0  0  0  0
  2  3  1  0  0  0  0
  2  7  2  0  0  0  0
  3  4  2  0  0  0  0
  3 19  1  0  0  0  0
  4  5  1  0  0  0  0
  4 20  1  0  0  0  0
  5  6  2  0  0  0  0
  5  8  1  0  0  0  0
  6  7  1  0  0  0  0
  6 21  1  0  0  0  0
  7 22  1  0  0  0  0
  8  9  1  0  0  0  0
  8 13  1  0  0  0  0
  9 10  1  0  0  0  0
  9 23  1  0  0  0  0
  9 24  1  0  0  0  0
 10 11  1  0  0  0  0
 10 25  1  0  0  0  0
 10 26  1  0  0  0  0
 11 12  1  0  0  0  0
 11 14  1  0  0  0  0
 12 13  1  0  0  0  0
 12 27  1  0  0  0  0
 12 28  1  0  0  0  0
 13 29  1  0  0  0  0
 13 30  1  0  0  0  0
 14 15  2  0  0  0  0
 14 16  1  0  0  0  0
 16 17  1  0  0  0  0
 16 18  1  0  0  0  0
 16 31  1  0  0  0  0
 17 18  1  0  0  0  0
 17 32  1  0  0  0  0
 17 33  1  0  0  0  0
 18 34  1  0  0  0  0
 18 35  1  0  0  0  0
M  END
$$$$
