MD_3_clus3
  MOE2019           3D

 18 18  0  0  0  0  0  0  0  0999 V2000
  -20.7483   14.2020   23.4524 C   0  0  0  0  0  0  0  0  0  0  0  0
  -19.2973   14.7960   23.3900 C   0  0  0  0  0  0  0  0  0  0  0  0
  -18.3484   13.6872   23.4150 O   0  0  0  0  0  0  0  0  0  0  0  0
  -17.1100   14.0307   23.1149 C   0  0  0  0  0  0  0  0  0  0  0  0
  -16.6797   15.1827   23.2417 O   0  0  0  0  0  0  0  0  0  0  0  0
  -16.2214   12.9200   22.8181 C   0  0  0  0  0  0  0  0  0  0  0  0
  -16.6562   11.6004   22.6644 C   0  0  0  0  0  0  0  0  0  0  0  0
  -15.5962   10.8315   22.4282 N   0  0  0  0  0  0  0  0  0  0  0  0
  -14.5463   11.6763   22.3350 N   0  0  0  0  0  0  0  0  0  0  0  0
  -14.8870   12.9610   22.5430 C   0  0  0  0  0  0  0  0  0  0  0  0
  -21.0697   14.0849   24.4894 H   0  0  0  0  0  0  0  0  0  0  0  0
  -21.3659   14.8543   22.8305 H   0  0  0  0  0  0  0  0  0  0  0  0
  -20.6859   13.1924   23.0410 H   0  0  0  0  0  0  0  0  0  0  0  0
  -19.1372   15.3323   22.4518 H   0  0  0  0  0  0  0  0  0  0  0  0
  -19.2104   15.4600   24.2541 H   0  0  0  0  0  0  0  0  0  0  0  0
  -17.6236   11.1436   22.8300 H   0  0  0  0  0  0  0  0  0  0  0  0
  -13.5786   11.3860   22.3596 H   0  0  0  0  0  0  0  0  0  0  0  0
  -14.1587   13.7596   22.6237 H   0  0  0  0  0  0  0  0  0  0  0  0
  1  2  1  0  0  0  0
  1 11  1  0  0  0  0
  1 12  1  0  0  0  0
  1 13  1  0  0  0  0
  2  3  1  0  0  0  0
  2 14  1  0  0  0  0
  2 15  1  0  0  0  0
  3  4  1  0  0  0  0
  4  5  2  0  0  0  0
  4  6  1  0  0  0  0
  6  7  1  0  0  0  0
  6 10  2  0  0  0  0
  7  8  2  0  0  0  0
  7 16  1  0  0  0  0
  8  9  1  0  0  0  0
  9 10  1  0  0  0  0
  9 17  1  0  0  0  0
 10 18  1  0  0  0  0
M  END
$$$$
