MD_3_clus3
  MOE2019           3D

 22 22  0  0  0  0  0  0  0  0999 V2000
  -17.8476   14.2946   26.4338 C   0  0  0  0  0  0  0  0  0  0  0  0
  -18.1746   15.2482   27.5092 C   0  0  0  0  0  0  0  0  0  0  0  0
  -19.1989   16.1946   27.1047 N   0  0  0  0  0  0  0  0  0  0  0  0
  -20.5862   16.0270   27.2302 C   0  0  0  0  0  0  0  0  0  0  0  0
  -21.1150   17.1817   26.7660 C   0  0  0  0  0  0  0  0  0  0  0  0
  -22.5713   17.5837   26.8135 C   0  0  0  0  0  0  0  0  0  0  0  0
  -23.1874   17.8432   25.4852 C   0  0  0  0  0  0  0  0  0  0  0  0
  -24.4707   18.5626   25.5540 O   0  0  0  0  0  0  0  0  0  0  0  0
  -20.0648   18.0687   26.4314 C   0  0  0  0  0  0  0  0  0  0  0  0
  -18.9211   17.4206   26.6534 N   0  0  0  0  0  0  0  0  0  0  0  0
  -17.2940   14.8735   25.6913 H   0  0  0  0  0  0  0  0  0  0  0  0
  -17.2856   13.4642   26.8670 H   0  0  0  0  0  0  0  0  0  0  0  0
  -18.7711   13.8875   26.0170 H   0  0  0  0  0  0  0  0  0  0  0  0
  -18.4851   14.7942   28.4539 H   0  0  0  0  0  0  0  0  0  0  0  0
  -17.2564   15.7854   27.7578 H   0  0  0  0  0  0  0  0  0  0  0  0
  -21.1244   15.1329   27.5198 H   0  0  0  0  0  0  0  0  0  0  0  0
  -23.2482   16.8904   27.3168 H   0  0  0  0  0  0  0  0  0  0  0  0
  -22.7091   18.5463   27.3109 H   0  0  0  0  0  0  0  0  0  0  0  0
  -22.4561   18.4445   24.9392 H   0  0  0  0  0  0  0  0  0  0  0  0
  -23.3843   16.8811   25.0068 H   0  0  0  0  0  0  0  0  0  0  0  0
  -24.9293   18.3009   26.3732 H   0  0  0  0  0  0  0  0  0  0  0  0
  -19.9909   19.1017   26.1133 H   0  0  0  0  0  0  0  0  0  0  0  0
  1  2  1  0  0  0  0
  1 11  1  0  0  0  0
  1 12  1  0  0  0  0
  1 13  1  0  0  0  0
  2  3  1  0  0  0  0
  2 14  1  0  0  0  0
  2 15  1  0  0  0  0
  3  4  1  0  0  0  0
  3 10  1  0  0  0  0
  4  5  2  0  0  0  0
  4 16  1  0  0  0  0
  5  6  1  0  0  0  0
  5  9  1  0  0  0  0
  6  7  1  0  0  0  0
  6 17  1  0  0  0  0
  6 18  1  0  0  0  0
  7  8  1  0  0  0  0
  7 19  1  0  0  0  0
  7 20  1  0  0  0  0
  8 21  1  0  0  0  0
  9 10  2  0  0  0  0
  9 22  1  0  0  0  0
M  END
$$$$
