MD_1_clus1
  MOE2019           3D

 39 40  0  0  0  0  0  0  0  0999 V2000
  -24.8850   10.7361   32.4093 C   0  0  0  0  0  0  0  0  0  0  0  0
  -24.8131   11.8425   31.4264 N   0  3  0  0  0  0  0  0  0  0  0  0
  -24.3349   11.3838   30.1413 C   0  0  0  0  0  0  0  0  0  0  0  0
  -24.4874   12.4049   29.1116 C   0  0  0  0  0  0  0  0  0  0  0  0
  -24.1041   13.7962   29.5068 N   0  0  0  0  0  0  0  0  0  0  0  0
  -23.4156   14.0170   30.8098 C   0  0  0  0  0  0  0  0  0  0  0  0
  -23.7891   12.8766   31.8240 C   0  0  0  0  0  0  0  0  0  0  0  0
  -24.3265   14.7976   28.6039 C   0  0  0  0  0  0  0  0  0  0  0  0
  -24.8263   14.5121   27.4969 O   0  0  0  0  0  0  0  0  0  0  0  0
  -23.7455   16.1462   28.9316 C   0  0  0  0  0  0  0  0  0  0  0  0
  -22.2581   16.1695   28.8202 O   0  0  0  0  0  0  0  0  0  0  0  0
  -21.4361   15.5521   27.8687 C   0  0  0  0  0  0  0  0  0  0  0  0
  -21.9771   15.3812   26.6148 C   0  0  0  0  0  0  0  0  0  0  0  0
  -21.2459   14.7627   25.6443 C   0  0  0  0  0  0  0  0  0  0  0  0
  -20.0315   14.2372   25.9119 C   0  0  0  0  0  0  0  0  0  0  0  0
  -19.3616   13.4744   24.7340 C   0  0  0  0  0  0  0  0  0  0  0  0
  -19.4686   14.4204   27.1857 C   0  0  0  0  0  0  0  0  0  0  0  0
  -20.1436   15.0820   28.1596 C   0  0  0  0  0  0  0  0  0  0  0  0
  -23.9093   10.5552   32.8625 H   0  0  0  0  0  0  0  0  0  0  0  0
  -25.6285   10.9639   33.1754 H   0  0  0  0  0  0  0  0  0  0  0  0
  -25.2486    9.8711   31.8531 H   0  0  0  0  0  0  0  0  0  0  0  0
  -23.2694   11.1886   30.2653 H   0  0  0  0  0  0  0  0  0  0  0  0
  -24.8283   10.4477   29.8720 H   0  0  0  0  0  0  0  0  0  0  0  0
  -23.9168   12.0773   28.2388 H   0  0  0  0  0  0  0  0  0  0  0  0
  -25.5613   12.4639   28.9149 H   0  0  0  0  0  0  0  0  0  0  0  0
  -22.3385   14.1403   30.6666 H   0  0  0  0  0  0  0  0  0  0  0  0
  -23.8213   14.9078   31.2972 H   0  0  0  0  0  0  0  0  0  0  0  0
  -24.0828   13.2615   32.8021 H   0  0  0  0  0  0  0  0  0  0  0  0
  -22.9191   12.2579   32.0508 H   0  0  0  0  0  0  0  0  0  0  0  0
  -24.0668   16.9075   28.2150 H   0  0  0  0  0  0  0  0  0  0  0  0
  -23.9899   16.5769   29.9054 H   0  0  0  0  0  0  0  0  0  0  0  0
  -22.9900   15.7551   26.4888 H   0  0  0  0  0  0  0  0  0  0  0  0
  -21.6550   14.6608   24.6428 H   0  0  0  0  0  0  0  0  0  0  0  0
  -19.6274   13.9147   23.7711 H   0  0  0  0  0  0  0  0  0  0  0  0
  -18.2890   13.6754   24.6814 H   0  0  0  0  0  0  0  0  0  0  0  0
  -19.4566   12.3910   24.8362 H   0  0  0  0  0  0  0  0  0  0  0  0
  -18.4854   14.0428   27.4556 H   0  0  0  0  0  0  0  0  0  0  0  0
  -19.7493   15.2705   29.1544 H   0  0  0  0  0  0  0  0  0  0  0  0
  -25.7421   12.2127   31.1689 H   0  0  0  0  0  0  0  0  0  0  0  0
  1  2  1  0  0  0  0
  1 19  1  0  0  0  0
  1 20  1  0  0  0  0
  1 21  1  0  0  0  0
  2  3  1  0  0  0  0
  2  7  1  0  0  0  0
  2 39  1  0  0  0  0
  3  4  1  0  0  0  0
  3 22  1  0  0  0  0
  3 23  1  0  0  0  0
  4  5  1  0  0  0  0
  4 24  1  0  0  0  0
  4 25  1  0  0  0  0
  5  6  1  0  0  0  0
  5  8  1  0  0  0  0
  6  7  1  0  0  0  0
  6 26  1  0  0  0  0
  6 27  1  0  0  0  0
  7 28  1  0  0  0  0
  7 29  1  0  0  0  0
  8  9  2  0  0  0  0
  8 10  1  0  0  0  0
 10 11  1  0  0  0  0
 10 30  1  0  0  0  0
 10 31  1  0  0  0  0
 11 12  1  0  0  0  0
 12 13  1  0  0  0  0
 12 18  2  0  0  0  0
 13 14  2  0  0  0  0
 13 32  1  0  0  0  0
 14 15  1  0  0  0  0
 14 33  1  0  0  0  0
 15 16  1  0  0  0  0
 15 17  2  0  0  0  0
 16 34  1  0  0  0  0
 16 35  1  0  0  0  0
 16 36  1  0  0  0  0
 17 18  1  0  0  0  0
 17 37  1  0  0  0  0
 18 38  1  0  0  0  0
M  CHG  1   2   1
M  END
$$$$
