MD_1_clus1
  MOE2019           3D

 23 23  0  0  0  0  0  0  0  0999 V2000
  -18.0887   11.1032   27.1433 C   0  0  0  0  0  0  0  0  0  0  0  0
  -18.8092   11.7421   26.0336 N   0  0  0  0  0  0  0  0  0  0  0  0
  -19.9171   12.6039   26.4777 C   0  0  0  0  0  0  0  0  0  0  0  0
  -21.3158   11.9779   26.6026 C   0  0  0  0  0  0  0  0  0  0  0  0
  -21.3828   11.0250   25.5285 O   0  0  0  0  0  0  0  0  0  0  0  0
  -18.0993   11.8633   24.9042 C   0  0  0  0  0  0  0  0  0  0  0  0
  -17.5491   10.7489   24.2459 C   0  0  0  0  0  0  0  0  0  0  0  0
  -17.1021   10.8751   22.9129 C   0  0  0  0  0  0  0  0  0  0  0  0
  -17.1353   12.0379   22.3247 C   0  0  0  0  0  0  0  0  0  0  0  0
  -17.6833   13.1106   23.0300 C   0  0  0  0  0  0  0  0  0  0  0  0
  -18.1096   13.0678   24.2683 N   0  0  0  0  0  0  0  0  0  0  0  0
  -18.1320   10.0111   27.1752 H   0  0  0  0  0  0  0  0  0  0  0  0
  -17.0463   11.4204   27.2333 H   0  0  0  0  0  0  0  0  0  0  0  0
  -18.5797   11.3127   28.0966 H   0  0  0  0  0  0  0  0  0  0  0  0
  -19.6400   13.1290   27.3949 H   0  0  0  0  0  0  0  0  0  0  0  0
  -19.9967   13.3789   25.7108 H   0  0  0  0  0  0  0  0  0  0  0  0
  -21.5230   11.4023   27.5082 H   0  0  0  0  0  0  0  0  0  0  0  0
  -22.1016   12.7205   26.4441 H   0  0  0  0  0  0  0  0  0  0  0  0
  -20.4318   10.9251   25.3439 H   0  0  0  0  0  0  0  0  0  0  0  0
  -17.3926    9.7909   24.7343 H   0  0  0  0  0  0  0  0  0  0  0  0
  -16.8376   10.0106   22.3089 H   0  0  0  0  0  0  0  0  0  0  0  0
  -16.8060   12.1731   21.2986 H   0  0  0  0  0  0  0  0  0  0  0  0
  -17.7879   14.0484   22.4876 H   0  0  0  0  0  0  0  0  0  0  0  0
  1  2  1  0  0  0  0
  1 12  1  0  0  0  0
  1 13  1  0  0  0  0
  1 14  1  0  0  0  0
  2  3  1  0  0  0  0
  2  6  1  0  0  0  0
  3  4  1  0  0  0  0
  3 15  1  0  0  0  0
  3 16  1  0  0  0  0
  4  5  1  0  0  0  0
  4 17  1  0  0  0  0
  4 18  1  0  0  0  0
  5 19  1  0  0  0  0
  6  7  1  0  0  0  0
  6 11  2  0  0  0  0
  7  8  2  0  0  0  0
  7 20  1  0  0  0  0
  8  9  1  0  0  0  0
  8 21  1  0  0  0  0
  9 10  2  0  0  0  0
  9 22  1  0  0  0  0
 10 11  1  0  0  0  0
 10 23  1  0  0  0  0
M  END
$$$$
