MD_2_clus3
  MOE2019           3D

 29 30  0  0  0  0  0  0  0  0999 V2000
  -24.9327   14.2981   31.2675 C   0  0  0  0  0  0  0  0  0  0  0  0
  -24.6347   14.4313   29.7700 C   0  0  0  0  0  0  0  0  0  0  0  0
  -23.4671   13.8789   29.2741 N   0  0  0  0  0  0  0  0  0  0  0  0
  -22.2957   14.5024   29.1326 C   0  0  0  0  0  0  0  0  0  0  0  0
  -21.4789   13.5967   28.5246 C   0  0  0  0  0  0  0  0  0  0  0  0
  -20.2675   13.9507   27.9184 N   0  0  0  0  0  0  0  0  0  0  0  0
  -19.6546   13.2520   26.9475 C   0  0  0  0  0  0  0  0  0  0  0  0
  -19.9770   12.1405   26.5997 O   0  0  0  0  0  0  0  0  0  0  0  0
  -18.5208   14.3451   26.7148 C   0  0  0  0  0  0  0  0  0  0  0  0
  -18.2373   13.9617   25.1732 C   0  0  0  0  0  0  0  0  0  0  0  0
  -16.8077   14.0381   25.7720 C   0  0  0  0  0  0  0  0  0  0  0  0
  -17.3690   13.4570   27.1222 C   0  0  0  0  0  0  0  0  0  0  0  0
  -22.1726   12.3627   28.4742 C   0  0  0  0  0  0  0  0  0  0  0  0
  -23.3997   12.5420   28.9905 N   0  0  0  0  0  0  0  0  0  0  0  0
  -25.7980   14.9399   31.4455 H   0  0  0  0  0  0  0  0  0  0  0  0
  -25.1969   13.2519   31.4347 H   0  0  0  0  0  0  0  0  0  0  0  0
  -24.0657   14.5304   31.8886 H   0  0  0  0  0  0  0  0  0  0  0  0
  -25.4998   14.0209   29.2434 H   0  0  0  0  0  0  0  0  0  0  0  0
  -24.5419   15.5086   29.6067 H   0  0  0  0  0  0  0  0  0  0  0  0
  -22.2459   15.5481   29.4080 H   0  0  0  0  0  0  0  0  0  0  0  0
  -19.8976   14.8494   28.1906 H   0  0  0  0  0  0  0  0  0  0  0  0
  -18.5424   15.3647   27.1093 H   0  0  0  0  0  0  0  0  0  0  0  0
  -18.6175   13.0023   24.8120 H   0  0  0  0  0  0  0  0  0  0  0  0
  -18.4624   14.7418   24.4406 H   0  0  0  0  0  0  0  0  0  0  0  0
  -16.0454   13.4912   25.2094 H   0  0  0  0  0  0  0  0  0  0  0  0
  -16.3628   15.0312   25.8862 H   0  0  0  0  0  0  0  0  0  0  0  0
  -16.8652   13.7493   28.0484 H   0  0  0  0  0  0  0  0  0  0  0  0
  -17.5291   12.3804   27.0150 H   0  0  0  0  0  0  0  0  0  0  0  0
  -21.8991   11.3714   28.1362 H   0  0  0  0  0  0  0  0  0  0  0  0
  1  2  1  0  0  0  0
  1 15  1  0  0  0  0
  1 16  1  0  0  0  0
  1 17  1  0  0  0  0
  2  3  1  0  0  0  0
  2 18  1  0  0  0  0
  2 19  1  0  0  0  0
  3  4  1  0  0  0  0
  3 14  1  0  0  0  0
  4  5  2  0  0  0  0
  4 20  1  0  0  0  0
  5  6  1  0  0  0  0
  5 13  1  0  0  0  0
  6  7  1  0  0  0  0
  6 21  1  0  0  0  0
  7  8  2  0  0  0  0
  7  9  1  0  0  0  0
  9 10  1  0  0  0  0
  9 12  1  0  0  0  0
  9 22  1  0  0  0  0
 10 11  1  0  0  0  0
 10 23  1  0  0  0  0
 10 24  1  0  0  0  0
 11 12  1  0  0  0  0
 11 25  1  0  0  0  0
 11 26  1  0  0  0  0
 12 27  1  0  0  0  0
 12 28  1  0  0  0  0
 13 14  2  0  0  0  0
 13 29  1  0  0  0  0
M  END
$$$$
