MD_3_clus2
  MOE2019           3D

 29 31  0  0  0  0  0  0  0  0999 V2000
  -17.8535   11.6201   24.8303 C   0  0  0  0  0  0  0  0  0  0  0  0
  -18.9520   12.4829   24.5367 O   0  0  0  0  0  0  0  0  0  0  0  0
  -19.4278   13.2390   25.5717 C   0  0  0  0  0  0  0  0  0  0  0  0
  -18.7617   14.3129   26.0481 C   0  0  0  0  0  0  0  0  0  0  0  0
  -19.3930   15.0031   27.1224 C   0  0  0  0  0  0  0  0  0  0  0  0
  -20.6607   14.7153   27.5611 C   0  0  0  0  0  0  0  0  0  0  0  0
  -21.3561   15.4354   28.4915 N   0  0  0  0  0  0  0  0  0  0  0  0
  -22.5605   14.8548   28.7560 C   0  0  0  0  0  0  0  0  0  0  0  0
  -23.5939   15.3895   29.5071 N   0  0  0  0  0  0  0  0  0  0  0  0
  -23.5386   16.4599   30.3074 C   0  0  0  0  0  0  0  0  0  0  0  0
  -22.6055   17.2284   30.2833 O   0  0  0  0  0  0  0  0  0  0  0  0
  -24.7169   16.6816   31.2270 C   0  0  0  0  0  0  0  0  0  0  0  0
  -24.4904   16.5015   32.6866 C   0  0  0  0  0  0  0  0  0  0  0  0
  -25.3499   15.5549   31.9584 C   0  0  0  0  0  0  0  0  0  0  0  0
  -22.9225   13.4706   27.7040 S   0  0  0  0  0  0  0  0  0  0  0  0
  -21.3580   13.6552   26.9338 C   0  0  0  0  0  0  0  0  0  0  0  0
  -20.7175   12.8973   26.0108 C   0  0  0  0  0  0  0  0  0  0  0  0
  -17.8168   10.7418   24.1799 H   0  0  0  0  0  0  0  0  0  0  0  0
  -16.8681   12.0734   24.6925 H   0  0  0  0  0  0  0  0  0  0  0  0
  -17.9335   11.3076   25.8748 H   0  0  0  0  0  0  0  0  0  0  0  0
  -17.7272   14.4742   25.7539 H   0  0  0  0  0  0  0  0  0  0  0  0
  -18.9136   15.8511   27.6039 H   0  0  0  0  0  0  0  0  0  0  0  0
  -24.4545   14.8646   29.4668 H   0  0  0  0  0  0  0  0  0  0  0  0
  -25.4602   17.3831   30.8590 H   0  0  0  0  0  0  0  0  0  0  0  0
  -23.5043   16.1457   32.9722 H   0  0  0  0  0  0  0  0  0  0  0  0
  -24.9548   17.1675   33.4075 H   0  0  0  0  0  0  0  0  0  0  0  0
  -26.4126   15.6533   32.1599 H   0  0  0  0  0  0  0  0  0  0  0  0
  -24.9238   14.5638   31.8369 H   0  0  0  0  0  0  0  0  0  0  0  0
  -21.1742   12.0043   25.5905 H   0  0  0  0  0  0  0  0  0  0  0  0
  1  2  1  0  0  0  0
  1 18  1  0  0  0  0
  1 19  1  0  0  0  0
  1 20  1  0  0  0  0
  2  3  1  0  0  0  0
  3  4  1  0  0  0  0
  3 17  2  0  0  0  0
  4  5  2  0  0  0  0
  4 21  1  0  0  0  0
  5  6  1  0  0  0  0
  5 22  1  0  0  0  0
  6  7  1  0  0  0  0
  6 16  2  0  0  0  0
  7  8  2  0  0  0  0
  8  9  1  0  0  0  0
  8 15  1  0  0  0  0
  9 10  1  0  0  0  0
  9 23  1  0  0  0  0
 10 11  2  0  0  0  0
 10 12  1  0  0  0  0
 12 13  1  0  0  0  0
 12 14  1  0  0  0  0
 12 24  1  0  0  0  0
 13 14  1  0  0  0  0
 13 25  1  0  0  0  0
 13 26  1  0  0  0  0
 14 27  1  0  0  0  0
 14 28  1  0  0  0  0
 15 16  1  0  0  0  0
 16 17  1  0  0  0  0
 17 29  1  0  0  0  0
M  END
$$$$
