MD_3_clus1
  MOE2019           3D

 27 27  0  0  0  0  0  0  0  0999 V2000
  -15.4127   14.7186   22.7649 C   0  0  0  0  0  0  0  0  0  0  0  0
  -16.7637   14.0993   22.6720 C   0  0  0  0  0  0  0  0  0  0  0  0
  -16.8657   12.9457   22.2953 O   0  0  0  0  0  0  0  0  0  0  0  0
  -17.8090   14.8478   23.0603 N   0  0  0  0  0  0  0  0  0  0  0  0
  -19.2576   14.3956   23.0482 C   0  0  0  0  0  0  0  0  0  0  0  0
  -19.8640   14.3286   24.4905 C   0  0  0  0  0  0  0  0  0  0  0  0
  -19.7980   15.4279   25.3671 C   0  0  0  0  0  0  0  0  0  0  0  0
  -20.5006   15.3246   26.6237 C   0  0  0  0  0  0  0  0  0  0  0  0
  -21.0458   14.1407   27.0173 C   0  0  0  0  0  0  0  0  0  0  0  0
  -21.1007   13.0583   26.1418 C   0  0  0  0  0  0  0  0  0  0  0  0
  -20.5218   13.1583   24.8868 C   0  0  0  0  0  0  0  0  0  0  0  0
  -21.8171   13.9043   28.6651 S   0  0  0  0  0  0  0  0  0  0  0  0
  -22.0610   12.5531   29.0657 O   0  0  0  0  0  0  0  0  0  0  0  0
  -22.1044   15.1103   29.3962 O   0  0  0  0  0  0  0  0  0  0  0  0
  -23.2991   14.0812   28.0015 N   0  0  0  0  0  0  0  0  0  0  0  0
  -15.3851   15.6317   22.1661 H   0  0  0  0  0  0  0  0  0  0  0  0
  -15.1924   14.8241   23.8296 H   0  0  0  0  0  0  0  0  0  0  0  0
  -14.6413   14.0674   22.3479 H   0  0  0  0  0  0  0  0  0  0  0  0
  -17.5998   15.7914   23.3516 H   0  0  0  0  0  0  0  0  0  0  0  0
  -19.8190   14.9812   22.3157 H   0  0  0  0  0  0  0  0  0  0  0  0
  -19.2463   13.3881   22.6253 H   0  0  0  0  0  0  0  0  0  0  0  0
  -19.1779   16.2790   25.0972 H   0  0  0  0  0  0  0  0  0  0  0  0
  -20.4023   16.1296   27.3474 H   0  0  0  0  0  0  0  0  0  0  0  0
  -21.7128   12.2239   26.4777 H   0  0  0  0  0  0  0  0  0  0  0  0
  -20.6355   12.3372   24.1837 H   0  0  0  0  0  0  0  0  0  0  0  0
  -23.6758   14.2516   28.9312 H   0  0  0  0  0  0  0  0  0  0  0  0
  -22.9941   14.9455   27.5589 H   0  0  0  0  0  0  0  0  0  0  0  0
  1  2  1  0  0  0  0
  1 16  1  0  0  0  0
  1 17  1  0  0  0  0
  1 18  1  0  0  0  0
  2  3  2  0  0  0  0
  2  4  1  0  0  0  0
  4  5  1  0  0  0  0
  4 19  1  0  0  0  0
  5  6  1  0  0  0  0
  5 20  1  0  0  0  0
  5 21  1  0  0  0  0
  6  7  1  0  0  0  0
  6 11  2  0  0  0  0
  7  8  2  0  0  0  0
  7 22  1  0  0  0  0
  8  9  1  0  0  0  0
  8 23  1  0  0  0  0
  9 10  2  0  0  0  0
  9 12  1  0  0  0  0
 10 11  1  0  0  0  0
 10 24  1  0  0  0  0
 11 25  1  0  0  0  0
 12 13  2  0  0  0  0
 12 14  2  0  0  0  0
 12 15  1  0  0  0  0
 15 26  1  0  0  0  0
 15 27  1  0  0  0  0
M  END
$$$$
