MD_2_clus5
  MOE2019           3D

 24 25  0  0  0  0  0  0  0  0999 V2000
  -17.6789   18.7399   26.8060 C   0  0  0  0  0  0  0  0  0  0  0  0
  -17.9367   18.4237   28.4680 S   0  0  0  0  0  0  0  0  0  0  0  0
  -16.9947   17.4482   28.9798 O   0  0  0  0  0  0  0  0  0  0  0  0
  -17.8832   19.6948   29.1196 O   0  0  0  0  0  0  0  0  0  0  0  0
  -19.5129   17.8006   28.5043 C   0  0  0  0  0  0  0  0  0  0  0  0
  -19.4648   16.3951   28.0347 C   0  0  0  0  0  0  0  0  0  0  0  0
  -19.3670   15.2591   28.8867 N   0  0  0  0  0  0  0  0  0  0  0  0
  -19.5895   14.2016   28.0299 C   0  0  0  0  0  0  0  0  0  0  0  0
  -19.7294   12.8174   28.2766 C   0  0  0  0  0  0  0  0  0  0  0  0
  -20.1364   12.0463   27.2193 C   0  0  0  0  0  0  0  0  0  0  0  0
  -20.3441   12.5858   25.9364 C   0  0  0  0  0  0  0  0  0  0  0  0
  -20.1235   13.9218   25.7235 C   0  0  0  0  0  0  0  0  0  0  0  0
  -19.7961   14.7385   26.7823 C   0  0  0  0  0  0  0  0  0  0  0  0
  -19.7332   16.1030   26.7588 N   0  0  0  0  0  0  0  0  0  0  0  0
  -16.5882   18.8052   26.7661 H   0  0  0  0  0  0  0  0  0  0  0  0
  -17.9440   17.9421   26.1070 H   0  0  0  0  0  0  0  0  0  0  0  0
  -18.0862   19.7438   26.6668 H   0  0  0  0  0  0  0  0  0  0  0  0
  -19.9521   17.8805   29.5022 H   0  0  0  0  0  0  0  0  0  0  0  0
  -20.1581   18.4653   27.9239 H   0  0  0  0  0  0  0  0  0  0  0  0
  -19.3236   15.1927   29.8956 H   0  0  0  0  0  0  0  0  0  0  0  0
  -19.7604   12.3876   29.2741 H   0  0  0  0  0  0  0  0  0  0  0  0
  -20.1675   10.9734   27.3944 H   0  0  0  0  0  0  0  0  0  0  0  0
  -20.6712   11.9831   25.0931 H   0  0  0  0  0  0  0  0  0  0  0  0
  -20.3959   14.3100   24.7454 H   0  0  0  0  0  0  0  0  0  0  0  0
  1  2  1  0  0  0  0
  1 15  1  0  0  0  0
  1 16  1  0  0  0  0
  1 17  1  0  0  0  0
  2  3  2  0  0  0  0
  2  4  2  0  0  0  0
  2  5  1  0  0  0  0
  5  6  1  0  0  0  0
  5 18  1  0  0  0  0
  5 19  1  0  0  0  0
  6  7  1  0  0  0  0
  6 14  2  0  0  0  0
  7  8  1  0  0  0  0
  7 20  1  0  0  0  0
  8  9  1  0  0  0  0
  8 13  2  0  0  0  0
  9 10  2  0  0  0  0
  9 21  1  0  0  0  0
 10 11  1  0  0  0  0
 10 22  1  0  0  0  0
 11 12  2  0  0  0  0
 11 23  1  0  0  0  0
 12 13  1  0  0  0  0
 12 24  1  0  0  0  0
 13 14  1  0  0  0  0
M  END
$$$$
