MD_2_clus1
  MOE2019           3D

 29 30  0  0  0  0  0  0  0  0999 V2000
  -24.1101   12.3188   27.3147 N   0  0  0  0  0  0  0  0  0  0  0  0
  -24.3597   12.9218   28.4464 C   0  0  0  0  0  0  0  0  0  0  0  0
  -25.4894   13.3034   28.6936 O   0  0  0  0  0  0  0  0  0  0  0  0
  -23.3381   12.8907   29.3919 N   0  0  0  0  0  0  0  0  0  0  0  0
  -22.0753   12.0189   29.3172 C   0  0  0  0  0  0  0  0  0  0  0  0
  -22.3556   10.7583   30.0551 C   0  0  0  0  0  0  0  0  0  0  0  0
  -23.2308   10.9021   31.2520 N   0  0  0  0  0  0  0  0  0  0  0  0
  -23.4157   12.2407   31.7623 C   0  0  0  0  0  0  0  0  0  0  0  0
  -23.5617   13.3791   30.7167 C   0  0  0  0  0  0  0  0  0  0  0  0
  -23.4746    9.7359   32.0817 C   0  0  0  0  0  0  0  0  0  0  0  0
  -23.8186    9.9737   33.1898 O   0  0  0  0  0  0  0  0  0  0  0  0
  -23.2346    8.3636   31.6615 C   0  0  0  0  0  0  0  0  0  0  0  0
  -23.6610    7.3591   32.4980 C   0  0  0  0  0  0  0  0  0  0  0  0
  -23.5914    6.1735   31.7684 C   0  0  0  0  0  0  0  0  0  0  0  0
  -23.2041    6.5671   30.4903 C   0  0  0  0  0  0  0  0  0  0  0  0
  -22.9852    7.9180   30.3334 O   0  0  0  0  0  0  0  0  0  0  0  0
  -24.8930   12.3021   26.6771 H   0  0  0  0  0  0  0  0  0  0  0  0
  -23.2565   11.8131   27.1358 H   0  0  0  0  0  0  0  0  0  0  0  0
  -21.7796   11.8295   28.2823 H   0  0  0  0  0  0  0  0  0  0  0  0
  -21.2652   12.4449   29.9156 H   0  0  0  0  0  0  0  0  0  0  0  0
  -22.8439   10.0735   29.3568 H   0  0  0  0  0  0  0  0  0  0  0  0
  -21.4085   10.3541   30.4244 H   0  0  0  0  0  0  0  0  0  0  0  0
  -24.3448   12.3174   32.3328 H   0  0  0  0  0  0  0  0  0  0  0  0
  -22.6376   12.5727   32.4536 H   0  0  0  0  0  0  0  0  0  0  0  0
  -22.7114   14.0478   30.8791 H   0  0  0  0  0  0  0  0  0  0  0  0
  -24.5509   13.8397   30.7754 H   0  0  0  0  0  0  0  0  0  0  0  0
  -24.0533    7.4022   33.5082 H   0  0  0  0  0  0  0  0  0  0  0  0
  -23.8031    5.1737   32.1324 H   0  0  0  0  0  0  0  0  0  0  0  0
  -22.9226    6.0677   29.5715 H   0  0  0  0  0  0  0  0  0  0  0  0
  1  2  1  0  0  0  0
  1 17  1  0  0  0  0
  1 18  1  0  0  0  0
  2  3  2  0  0  0  0
  2  4  1  0  0  0  0
  4  5  1  0  0  0  0
  4  9  1  0  0  0  0
  5  6  1  0  0  0  0
  5 19  1  0  0  0  0
  5 20  1  0  0  0  0
  6  7  1  0  0  0  0
  6 21  1  0  0  0  0
  6 22  1  0  0  0  0
  7  8  1  0  0  0  0
  7 10  1  0  0  0  0
  8  9  1  0  0  0  0
  8 23  1  0  0  0  0
  8 24  1  0  0  0  0
  9 25  1  0  0  0  0
  9 26  1  0  0  0  0
 10 11  2  0  0  0  0
 10 12  1  0  0  0  0
 12 13  2  0  0  0  0
 12 16  1  0  0  0  0
 13 14  1  0  0  0  0
 13 27  1  0  0  0  0
 14 15  2  0  0  0  0
 14 28  1  0  0  0  0
 15 16  1  0  0  0  0
 15 29  1  0  0  0  0
M  END
$$$$
