MD_1_clus4
  MOE2019           3D

 14 14  0  0  0  0  0  0  0  0999 V2000
  -20.2670   13.8755   28.4875 C   0  0  0  0  0  0  0  0  0  0  0  0
  -20.0699   15.1722   27.7802 C   0  0  0  0  0  0  0  0  0  0  0  0
  -18.7723   15.5284   27.2455 C   0  0  0  0  0  0  0  0  0  0  0  0
  -18.6940   16.7954   26.7430 C   0  0  0  0  0  0  0  0  0  0  0  0
  -20.2790   17.5962   26.6745 S   0  0  0  0  0  0  0  0  0  0  0  0
  -20.9911   16.1676   27.4622 C   0  0  0  0  0  0  0  0  0  0  0  0
  -22.4267   16.2298   27.8346 C   0  0  0  0  0  0  0  0  0  0  0  0
  -22.8945   15.2767   28.4593 O   0  0  0  0  0  0  0  0  0  0  0  0
  -23.1149   17.2666   27.6456 O   0  5  0  0  0  0  0  0  0  0  0  0
  -19.4186   13.1891   28.4792 H   0  0  0  0  0  0  0  0  0  0  0  0
  -20.4170   14.1410   29.5360 H   0  0  0  0  0  0  0  0  0  0  0  0
  -21.0925   13.3175   28.0405 H   0  0  0  0  0  0  0  0  0  0  0  0
  -17.8985   14.8916   27.3295 H   0  0  0  0  0  0  0  0  0  0  0  0
  -17.8483   17.2960   26.2884 H   0  0  0  0  0  0  0  0  0  0  0  0
  1  2  1  0  0  0  0
  1 10  1  0  0  0  0
  1 11  1  0  0  0  0
  1 12  1  0  0  0  0
  2  3  1  0  0  0  0
  2  6  2  0  0  0  0
  3  4  2  0  0  0  0
  3 13  1  0  0  0  0
  4  5  1  0  0  0  0
  4 14  1  0  0  0  0
  5  6  1  0  0  0  0
  6  7  1  0  0  0  0
  7  8  2  0  0  0  0
  7  9  1  0  0  0  0
M  CHG  1   9  -1
M  END
$$$$
