MD_1_clus2
  MOE2019           3D

 25 26  0  0  0  0  0  0  0  0999 V2000
  -30.0204    9.6210   20.3440 C   0  0  0  0  0  0  0  0  0  0  0  0
  -30.1302   10.6045   21.4884 C   0  0  0  0  0  0  0  0  0  0  0  0
  -31.0677   11.5153   21.5018 C   0  0  0  0  0  0  0  0  0  0  0  0
  -30.7658   12.3428   22.6183 C   0  0  0  0  0  0  0  0  0  0  0  0
  -29.7208   11.8162   23.2384 N   0  0  0  0  0  0  0  0  0  0  0  0
  -29.2271   10.7806   22.4519 O   0  0  0  0  0  0  0  0  0  0  0  0
  -31.5131   13.5902   22.9696 C   0  0  0  0  0  0  0  0  0  0  0  0
  -32.3095   14.1327   22.2138 O   0  0  0  0  0  0  0  0  0  0  0  0
  -31.1796   14.2034   24.1298 N   0  0  0  0  0  0  0  0  0  0  0  0
  -32.0591   14.9337   24.9141 C   0  0  0  0  0  0  0  0  0  0  0  0
  -33.4633   15.2335   24.7229 C   0  0  0  0  0  0  0  0  0  0  0  0
  -33.9230   15.7405   25.8897 N   0  0  0  0  0  0  0  0  0  0  0  0
  -32.7616   16.0146   26.6259 N   0  0  0  0  0  0  0  0  0  0  0  0
  -32.8148   16.6420   27.9684 C   0  0  0  0  0  0  0  0  0  0  0  0
  -31.6358   15.4818   26.0483 C   0  0  0  0  0  0  0  0  0  0  0  0
  -30.6765    9.9218   19.5246 H   0  0  0  0  0  0  0  0  0  0  0  0
  -29.0060    9.6017   19.9410 H   0  0  0  0  0  0  0  0  0  0  0  0
  -30.3902    8.6214   20.5859 H   0  0  0  0  0  0  0  0  0  0  0  0
  -31.7830   11.7233   20.7120 H   0  0  0  0  0  0  0  0  0  0  0  0
  -30.3062   13.9170   24.5463 H   0  0  0  0  0  0  0  0  0  0  0  0
  -34.2050   14.8162   24.0527 H   0  0  0  0  0  0  0  0  0  0  0  0
  -31.8099   16.9791   28.2355 H   0  0  0  0  0  0  0  0  0  0  0  0
  -33.4164   17.5531   27.9099 H   0  0  0  0  0  0  0  0  0  0  0  0
  -33.1828   15.9729   28.7503 H   0  0  0  0  0  0  0  0  0  0  0  0
  -30.6878   15.5744   26.5628 H   0  0  0  0  0  0  0  0  0  0  0  0
  1  2  1  0  0  0  0
  1 16  1  0  0  0  0
  1 17  1  0  0  0  0
  1 18  1  0  0  0  0
  2  3  2  0  0  0  0
  2  6  1  0  0  0  0
  3  4  1  0  0  0  0
  3 19  1  0  0  0  0
  4  5  2  0  0  0  0
  4  7  1  0  0  0  0
  5  6  1  0  0  0  0
  7  8  2  0  0  0  0
  7  9  1  0  0  0  0
  9 10  1  0  0  0  0
  9 20  1  0  0  0  0
 10 11  1  0  0  0  0
 10 15  2  0  0  0  0
 11 12  2  0  0  0  0
 11 21  1  0  0  0  0
 12 13  1  0  0  0  0
 13 14  1  0  0  0  0
 13 15  1  0  0  0  0
 14 22  1  0  0  0  0
 14 23  1  0  0  0  0
 14 24  1  0  0  0  0
 15 25  1  0  0  0  0
M  END
$$$$
