MD_2_clus3
  MOE2019           3D

 17 18  0  0  0  0  0  0  0  0999 V2000
  -18.0838   17.0607   27.2444 O   0  0  0  0  0  0  0  0  0  0  0  0
  -17.9880   15.9316   26.8198 C   0  0  0  0  0  0  0  0  0  0  0  0
  -18.3873   14.6992   27.5817 C   0  0  0  0  0  0  0  0  0  0  0  0
  -18.0951   13.6098   26.5503 C   0  0  0  0  0  0  0  0  0  0  0  0
  -17.6215   14.1683   25.3830 C   0  0  0  0  0  0  0  0  0  0  0  0
  -17.0921   13.3606   24.3538 C   0  0  0  0  0  0  0  0  0  0  0  0
  -17.2025   11.9535   24.5404 C   0  0  0  0  0  0  0  0  0  0  0  0
  -16.3868   10.7344   23.2037 Br  0  0  0  0  0  0  0  0  0  0  0  0
  -17.8714   11.4075   25.6421 C   0  0  0  0  0  0  0  0  0  0  0  0
  -18.2109   12.2206   26.7160 C   0  0  0  0  0  0  0  0  0  0  0  0
  -17.5344   15.5214   25.6170 N   0  0  0  0  0  0  0  0  0  0  0  0
  -17.6615   14.6789   28.3971 H   0  0  0  0  0  0  0  0  0  0  0  0
  -19.4615   14.7952   27.7506 H   0  0  0  0  0  0  0  0  0  0  0  0
  -16.5593   13.8308   23.5312 H   0  0  0  0  0  0  0  0  0  0  0  0
  -17.8688   10.3273   25.7626 H   0  0  0  0  0  0  0  0  0  0  0  0
  -18.6580   11.7156   27.5682 H   0  0  0  0  0  0  0  0  0  0  0  0
  -17.2923   16.1333   24.8512 H   0  0  0  0  0  0  0  0  0  0  0  0
  1  2  2  0  0  0  0
  2  3  1  0  0  0  0
  2 11  1  0  0  0  0
  3  4  1  0  0  0  0
  3 12  1  0  0  0  0
  3 13  1  0  0  0  0
  4  5  1  0  0  0  0
  4 10  2  0  0  0  0
  5  6  2  0  0  0  0
  5 11  1  0  0  0  0
  6  7  1  0  0  0  0
  6 14  1  0  0  0  0
  7  8  1  0  0  0  0
  7  9  2  0  0  0  0
  9 10  1  0  0  0  0
  9 15  1  0  0  0  0
 10 16  1  0  0  0  0
 11 17  1  0  0  0  0
M  END
$$$$
