MD_3_clus0
  MOE2019           3D

 26 27  0  0  0  0  0  0  0  0999 V2000
  -17.7622   10.7653   23.2903 C   0  0  0  0  0  0  0  0  0  0  0  0
  -18.3079   11.0280   24.5987 C   0  0  0  0  0  0  0  0  0  0  0  0
  -17.8986   12.0468   25.4251 C   0  0  0  0  0  0  0  0  0  0  0  0
  -18.5402   11.8091   26.6152 C   0  0  0  0  0  0  0  0  0  0  0  0
  -18.3806   12.5244   27.8393 C   0  0  0  0  0  0  0  0  0  0  0  0
  -19.0767   13.8226   27.8686 N   0  0  0  0  0  0  0  0  0  0  0  0
  -18.1928   14.8462   27.5818 N   0  0  0  0  0  0  0  0  0  0  0  0
  -18.6474   16.0954   27.5458 C   0  0  0  0  0  0  0  0  0  0  0  0
  -17.8368   17.3244   27.3446 C   0  0  0  0  0  0  0  0  0  0  0  0
  -20.0740   16.3598   27.5606 C   0  0  0  0  0  0  0  0  0  0  0  0
  -20.9547   15.3453   27.9718 C   0  0  0  0  0  0  0  0  0  0  0  0
  -20.4397   13.9723   28.1725 C   0  0  0  0  0  0  0  0  0  0  0  0
  -21.1494   13.0330   28.5064 O   0  0  0  0  0  0  0  0  0  0  0  0
  -19.4765   10.8509   26.4958 O   0  0  0  0  0  0  0  0  0  0  0  0
  -19.2654   10.3092   25.1901 N   0  0  0  0  0  0  0  0  0  0  0  0
  -17.3077    9.7721   23.2827 H   0  0  0  0  0  0  0  0  0  0  0  0
  -18.5014   10.7946   22.4874 H   0  0  0  0  0  0  0  0  0  0  0  0
  -16.9424   11.4726   23.1473 H   0  0  0  0  0  0  0  0  0  0  0  0
  -17.1141   12.7641   25.2058 H   0  0  0  0  0  0  0  0  0  0  0  0
  -18.8350   11.9331   28.6386 H   0  0  0  0  0  0  0  0  0  0  0  0
  -17.3252   12.6840   28.0775 H   0  0  0  0  0  0  0  0  0  0  0  0
  -18.0343   17.9709   26.4875 H   0  0  0  0  0  0  0  0  0  0  0  0
  -17.8588   18.0315   28.1766 H   0  0  0  0  0  0  0  0  0  0  0  0
  -16.8539   16.9303   27.0796 H   0  0  0  0  0  0  0  0  0  0  0  0
  -20.4158   17.3871   27.4877 H   0  0  0  0  0  0  0  0  0  0  0  0
  -21.9981   15.5058   28.2247 H   0  0  0  0  0  0  0  0  0  0  0  0
  1  2  1  0  0  0  0
  1 16  1  0  0  0  0
  1 17  1  0  0  0  0
  1 18  1  0  0  0  0
  2  3  1  0  0  0  0
  2 15  2  0  0  0  0
  3  4  2  0  0  0  0
  3 19  1  0  0  0  0
  4  5  1  0  0  0  0
  4 14  1  0  0  0  0
  5  6  1  0  0  0  0
  5 20  1  0  0  0  0
  5 21  1  0  0  0  0
  6  7  1  0  0  0  0
  6 12  1  0  0  0  0
  7  8  2  0  0  0  0
  8  9  1  0  0  0  0
  8 10  1  0  0  0  0
  9 22  1  0  0  0  0
  9 23  1  0  0  0  0
  9 24  1  0  0  0  0
 10 11  2  0  0  0  0
 10 25  1  0  0  0  0
 11 12  1  0  0  0  0
 11 26  1  0  0  0  0
 12 13  2  0  0  0  0
 14 15  1  0  0  0  0
M  END
$$$$
