MD_1_clus0
  MOE2019           3D

 21 21  0  0  0  0  0  0  0  0999 V2000
  -19.9922   13.9292   27.0432 C   0  0  0  0  0  0  0  0  0  0  0  0
  -20.7466   15.1081   26.6902 O   0  0  0  0  0  0  0  0  0  0  0  0
  -20.2120   16.3869   26.7281 C   0  0  0  0  0  0  0  0  0  0  0  0
  -18.8445   16.6757   27.1343 C   0  0  0  0  0  0  0  0  0  0  0  0
  -18.3353   17.9395   27.0612 C   0  0  0  0  0  0  0  0  0  0  0  0
  -19.1408   18.9889   26.6206 C   0  0  0  0  0  0  0  0  0  0  0  0
  -20.4991   18.7629   26.3616 C   0  0  0  0  0  0  0  0  0  0  0  0
  -21.0903   17.4584   26.3841 C   0  0  0  0  0  0  0  0  0  0  0  0
  -22.5451   17.3431   26.0962 C   0  0  0  0  0  0  0  0  0  0  0  0
  -23.3600   17.9027   27.2756 C   0  0  0  0  0  0  0  0  0  0  0  0
  -23.9002   19.0406   27.2848 O   0  0  0  0  0  0  0  0  0  0  0  0
  -23.3747   17.1756   28.2783 O   0  5  0  0  0  0  0  0  0  0  0  0
  -16.5806   18.2579   27.5441 Br  0  0  0  0  0  0  0  0  0  0  0  0
  -19.5342   14.0732   28.0252 H   0  0  0  0  0  0  0  0  0  0  0  0
  -20.7276   13.1284   27.1558 H   0  0  0  0  0  0  0  0  0  0  0  0
  -19.2159   13.7638   26.2906 H   0  0  0  0  0  0  0  0  0  0  0  0
  -18.2097   15.8977   27.5513 H   0  0  0  0  0  0  0  0  0  0  0  0
  -18.6597   19.9637   26.6445 H   0  0  0  0  0  0  0  0  0  0  0  0
  -21.1579   19.6235   26.2796 H   0  0  0  0  0  0  0  0  0  0  0  0
  -22.8706   17.7029   25.1174 H   0  0  0  0  0  0  0  0  0  0  0  0
  -22.7585   16.2743   26.0395 H   0  0  0  0  0  0  0  0  0  0  0  0
  1  2  1  0  0  0  0
  1 14  1  0  0  0  0
  1 15  1  0  0  0  0
  1 16  1  0  0  0  0
  2  3  1  0  0  0  0
  3  4  1  0  0  0  0
  3  8  2  0  0  0  0
  4  5  2  0  0  0  0
  4 17  1  0  0  0  0
  5  6  1  0  0  0  0
  5 13  1  0  0  0  0
  6  7  2  0  0  0  0
  6 18  1  0  0  0  0
  7  8  1  0  0  0  0
  7 19  1  0  0  0  0
  8  9  1  0  0  0  0
  9 10  1  0  0  0  0
  9 20  1  0  0  0  0
  9 21  1  0  0  0  0
 10 11  2  0  0  0  0
 10 12  1  0  0  0  0
M  CHG  1  12  -1
M  END
$$$$
