MD_1_clus3
  MOE2019           3D

 25 26  0  0  0  0  0  0  0  0999 V2000
  -23.7698    7.3536   32.5840 C   0  0  0  0  0  0  0  0  0  0  0  0
  -23.4941    8.7494   32.0992 C   0  0  0  0  0  0  0  0  0  0  0  0
  -24.4152    9.5683   31.5429 C   0  0  0  0  0  0  0  0  0  0  0  0
  -23.8187   10.7824   31.3055 C   0  0  0  0  0  0  0  0  0  0  0  0
  -22.4711   10.6797   31.7428 N   0  0  0  0  0  0  0  0  0  0  0  0
  -22.3418    9.3212   32.1897 O   0  0  0  0  0  0  0  0  0  0  0  0
  -24.4514   11.9262   30.5559 C   0  0  0  0  0  0  0  0  0  0  0  0
  -25.6510   11.9804   30.2882 O   0  0  0  0  0  0  0  0  0  0  0  0
  -23.5946   12.8327   30.1378 N   0  0  0  0  0  0  0  0  0  0  0  0
  -23.8425   13.9481   29.2969 C   0  0  0  0  0  0  0  0  0  0  0  0
  -25.0134   14.3429   28.6863 C   0  0  0  0  0  0  0  0  0  0  0  0
  -24.7400   15.4169   27.9858 N   0  0  0  0  0  0  0  0  0  0  0  0
  -23.4488   15.7808   28.2205 N   0  0  0  0  0  0  0  0  0  0  0  0
  -22.8345   16.9274   27.5268 C   0  0  0  0  0  0  0  0  0  0  0  0
  -22.8745   14.9255   29.1652 C   0  0  0  0  0  0  0  0  0  0  0  0
  -22.9196    6.9180   33.1134 H   0  0  0  0  0  0  0  0  0  0  0  0
  -24.7023    7.2925   33.1493 H   0  0  0  0  0  0  0  0  0  0  0  0
  -24.0402    6.7823   31.6929 H   0  0  0  0  0  0  0  0  0  0  0  0
  -25.4657    9.3755   31.3536 H   0  0  0  0  0  0  0  0  0  0  0  0
  -22.6726   12.7559   30.5405 H   0  0  0  0  0  0  0  0  0  0  0  0
  -25.9941   13.9014   28.5547 H   0  0  0  0  0  0  0  0  0  0  0  0
  -21.7619   16.7205   27.4809 H   0  0  0  0  0  0  0  0  0  0  0  0
  -23.1970   16.9624   26.4960 H   0  0  0  0  0  0  0  0  0  0  0  0
  -23.1925   17.9154   27.8270 H   0  0  0  0  0  0  0  0  0  0  0  0
  -21.8792   15.0269   29.5802 H   0  0  0  0  0  0  0  0  0  0  0  0
  1  2  1  0  0  0  0
  1 16  1  0  0  0  0
  1 17  1  0  0  0  0
  1 18  1  0  0  0  0
  2  3  2  0  0  0  0
  2  6  1  0  0  0  0
  3  4  1  0  0  0  0
  3 19  1  0  0  0  0
  4  5  2  0  0  0  0
  4  7  1  0  0  0  0
  5  6  1  0  0  0  0
  7  8  2  0  0  0  0
  7  9  1  0  0  0  0
  9 10  1  0  0  0  0
  9 20  1  0  0  0  0
 10 11  1  0  0  0  0
 10 15  2  0  0  0  0
 11 12  2  0  0  0  0
 11 21  1  0  0  0  0
 12 13  1  0  0  0  0
 13 14  1  0  0  0  0
 13 15  1  0  0  0  0
 14 22  1  0  0  0  0
 14 23  1  0  0  0  0
 14 24  1  0  0  0  0
 15 25  1  0  0  0  0
M  END
$$$$
