MD_2_clus2
  MOE2019           3D

 25 27  0  0  0  0  0  0  0  0999 V2000
  -20.8040   17.2820   27.2308 O   0  0  0  0  0  0  0  0  0  0  0  0
  -19.5962   17.5148   27.0800 C   0  0  0  0  0  0  0  0  0  0  0  0
  -18.7337   16.5413   27.0902 N   0  0  0  0  0  0  0  0  0  0  0  0
  -19.0617   15.2542   27.5799 C   0  0  0  0  0  0  0  0  0  0  0  0
  -17.8814   14.3383   27.7088 C   0  0  0  0  0  0  0  0  0  0  0  0
  -18.8533   14.2531   26.5203 C   0  0  0  0  0  0  0  0  0  0  0  0
  -18.9382   18.8069   27.0061 C   0  0  0  0  0  0  0  0  0  0  0  0
  -17.6117   19.1903   27.1208 C   0  0  0  0  0  0  0  0  0  0  0  0
  -17.4315   20.5078   27.0683 N   0  5  0  0  0  0  0  0  0  0  0  0
  -18.6569   21.0119   26.8258 N   0  3  0  0  0  0  0  0  0  0  0  0
  -18.8874   22.3071   26.5385 C   0  0  0  0  0  0  0  0  0  0  0  0
  -20.2440   22.5957   26.5046 C   0  0  0  0  0  0  0  0  0  0  0  0
  -21.1677   21.4551   26.4244 C   0  0  0  0  0  0  0  0  0  0  0  0
  -20.8769   20.0624   26.6350 N   0  0  0  0  0  0  0  0  0  0  0  0
  -19.5631   19.9890   26.9461 C   0  0  0  0  0  0  0  0  0  0  0  0
  -17.7628   16.7909   26.9701 H   0  0  0  0  0  0  0  0  0  0  0  0
  -19.8856   15.1381   28.2796 H   0  0  0  0  0  0  0  0  0  0  0  0
  -16.9389   14.8783   27.7395 H   0  0  0  0  0  0  0  0  0  0  0  0
  -17.8898   13.4458   28.3283 H   0  0  0  0  0  0  0  0  0  0  0  0
  -19.5544   13.4239   26.4794 H   0  0  0  0  0  0  0  0  0  0  0  0
  -18.4767   14.6003   25.5629 H   0  0  0  0  0  0  0  0  0  0  0  0
  -16.7323   18.5573   27.0952 H   0  0  0  0  0  0  0  0  0  0  0  0
  -18.0451   22.9777   26.4219 H   0  0  0  0  0  0  0  0  0  0  0  0
  -20.7425   23.5467   26.3448 H   0  0  0  0  0  0  0  0  0  0  0  0
  -22.2340   21.6115   26.3142 H   0  0  0  0  0  0  0  0  0  0  0  0
  1  2  2  0  0  0  0
  2  3  1  0  0  0  0
  2  7  1  0  0  0  0
  3  4  1  0  0  0  0
  3 16  1  0  0  0  0
  4  5  1  0  0  0  0
  4  6  1  0  0  0  0
  4 17  1  0  0  0  0
  5  6  1  0  0  0  0
  5 18  1  0  0  0  0
  5 19  1  0  0  0  0
  6 20  1  0  0  0  0
  6 21  1  0  0  0  0
  7  8  2  0  0  0  0
  7 15  1  0  0  0  0
  8  9  1  0  0  0  0
  8 22  1  0  0  0  0
  9 10  1  0  0  0  0
 10 11  1  0  0  0  0
 10 15  2  0  0  0  0
 11 12  2  0  0  0  0
 11 23  1  0  0  0  0
 12 13  1  0  0  0  0
 12 24  1  0  0  0  0
 13 14  2  0  0  0  0
 13 25  1  0  0  0  0
 14 15  1  0  0  0  0
M  CHG  1   9  -1
M  CHG  1  10   1
M  END
$$$$
