MD_1_clus5
  MOE2019           3D

 27 28  0  0  0  0  0  0  0  0999 V2000
  -21.2590   12.0892   28.3446 C   0  0  0  0  0  0  0  0  0  0  0  0
  -21.6095   12.4788   27.0197 O   0  0  0  0  0  0  0  0  0  0  0  0
  -20.6420   12.8503   26.1424 C   0  0  0  0  0  0  0  0  0  0  0  0
  -20.1342   11.8998   25.2772 C   0  0  0  0  0  0  0  0  0  0  0  0
  -19.0021   12.1152   24.4647 C   0  0  0  0  0  0  0  0  0  0  0  0
  -18.3495   13.2682   24.6199 C   0  0  0  0  0  0  0  0  0  0  0  0
  -18.8142   14.2688   25.5250 C   0  0  0  0  0  0  0  0  0  0  0  0
  -18.0188   15.4883   25.6735 N   0  0  0  0  0  0  0  0  0  0  0  0
  -17.4687   16.0630   26.7631 C   0  0  0  0  0  0  0  0  0  0  0  0
  -16.6671   17.0252   26.7803 O   0  0  0  0  0  0  0  0  0  0  0  0
  -17.8765   15.4471   28.0437 C   0  0  0  0  0  0  0  0  0  0  0  0
  -19.3988   15.5297   28.3888 C   0  0  0  0  0  0  0  0  0  0  0  0
  -20.3524   15.1765   27.2911 C   0  0  0  0  0  0  0  0  0  0  0  0
  -19.9539   14.0585   26.3318 C   0  0  0  0  0  0  0  0  0  0  0  0
  -20.6624   11.1986   28.1302 H   0  0  0  0  0  0  0  0  0  0  0  0
  -20.5660   12.7838   28.8245 H   0  0  0  0  0  0  0  0  0  0  0  0
  -22.1354   11.8131   28.9365 H   0  0  0  0  0  0  0  0  0  0  0  0
  -20.5212   10.8836   25.2714 H   0  0  0  0  0  0  0  0  0  0  0  0
  -18.5785   11.3288   23.8456 H   0  0  0  0  0  0  0  0  0  0  0  0
  -17.4616   13.4596   24.0233 H   0  0  0  0  0  0  0  0  0  0  0  0
  -17.7292   15.8802   24.7900 H   0  0  0  0  0  0  0  0  0  0  0  0
  -17.4885   14.4374   28.1894 H   0  0  0  0  0  0  0  0  0  0  0  0
  -17.2806   15.9643   28.7997 H   0  0  0  0  0  0  0  0  0  0  0  0
  -19.5920   14.8879   29.2510 H   0  0  0  0  0  0  0  0  0  0  0  0
  -19.5771   16.5681   28.6766 H   0  0  0  0  0  0  0  0  0  0  0  0
  -21.2292   14.9666   27.9074 H   0  0  0  0  0  0  0  0  0  0  0  0
  -20.5394   16.0076   26.6085 H   0  0  0  0  0  0  0  0  0  0  0  0
  1  2  1  0  0  0  0
  1 15  1  0  0  0  0
  1 16  1  0  0  0  0
  1 17  1  0  0  0  0
  2  3  1  0  0  0  0
  3  4  1  0  0  0  0
  3 14  2  0  0  0  0
  4  5  2  0  0  0  0
  4 18  1  0  0  0  0
  5  6  1  0  0  0  0
  5 19  1  0  0  0  0
  6  7  2  0  0  0  0
  6 20  1  0  0  0  0
  7  8  1  0  0  0  0
  7 14  1  0  0  0  0
  8  9  1  0  0  0  0
  8 21  1  0  0  0  0
  9 10  2  0  0  0  0
  9 11  1  0  0  0  0
 11 12  1  0  0  0  0
 11 22  1  0  0  0  0
 11 23  1  0  0  0  0
 12 13  1  0  0  0  0
 12 24  1  0  0  0  0
 12 25  1  0  0  0  0
 13 14  1  0  0  0  0
 13 26  1  0  0  0  0
 13 27  1  0  0  0  0
M  END
$$$$
