MD_2_clus1
  MOE2019           3D

 18 18  0  0  0  0  0  0  0  0999 V2000
  -19.2461   14.0298   25.4207 C   0  0  0  0  0  0  0  0  0  0  0  0
  -18.5149   15.2607   25.9732 C   0  0  0  0  0  0  0  0  0  0  0  0
  -19.4467   16.4209   26.0239 O   0  0  0  0  0  0  0  0  0  0  0  0
  -18.9592   17.5546   26.5249 C   0  0  0  0  0  0  0  0  0  0  0  0
  -17.8537   17.7274   27.1189 O   0  0  0  0  0  0  0  0  0  0  0  0
  -19.9680   18.6253   26.3944 C   0  0  0  0  0  0  0  0  0  0  0  0
  -21.2515   18.5476   25.7503 C   0  0  0  0  0  0  0  0  0  0  0  0
  -21.9483   19.6248   25.9931 N   0  0  0  0  0  0  0  0  0  0  0  0
  -21.1462   20.4007   26.6692 N   0  0  0  0  0  0  0  0  0  0  0  0
  -19.9200   19.8160   26.9976 C   0  0  0  0  0  0  0  0  0  0  0  0
  -20.0135   13.7921   26.1606 H   0  0  0  0  0  0  0  0  0  0  0  0
  -19.6622   14.1015   24.4144 H   0  0  0  0  0  0  0  0  0  0  0  0
  -18.6107   13.1458   25.3269 H   0  0  0  0  0  0  0  0  0  0  0  0
  -18.2239   15.0427   27.0042 H   0  0  0  0  0  0  0  0  0  0  0  0
  -17.6840   15.3067   25.2648 H   0  0  0  0  0  0  0  0  0  0  0  0
  -21.7545   17.7464   25.2229 H   0  0  0  0  0  0  0  0  0  0  0  0
  -21.3637   21.3525   26.9313 H   0  0  0  0  0  0  0  0  0  0  0  0
  -19.1974   20.2675   27.6652 H   0  0  0  0  0  0  0  0  0  0  0  0
  1  2  1  0  0  0  0
  1 11  1  0  0  0  0
  1 12  1  0  0  0  0
  1 13  1  0  0  0  0
  2  3  1  0  0  0  0
  2 14  1  0  0  0  0
  2 15  1  0  0  0  0
  3  4  1  0  0  0  0
  4  5  2  0  0  0  0
  4  6  1  0  0  0  0
  6  7  1  0  0  0  0
  6 10  2  0  0  0  0
  7  8  2  0  0  0  0
  7 16  1  0  0  0  0
  8  9  1  0  0  0  0
  9 10  1  0  0  0  0
  9 17  1  0  0  0  0
 10 18  1  0  0  0  0
M  END
$$$$
