MD_1_clus3
  MOE2019           3D

 30 31  0  0  0  0  0  0  0  0999 V2000
  -17.8785   13.6420   28.8557 C   0  0  0  0  0  0  0  0  0  0  0  0
  -18.0906   13.0275   27.4548 C   0  0  0  0  0  0  0  0  0  0  0  0
  -18.8105   13.8942   26.5212 N   0  0  0  0  0  0  0  0  0  0  0  0
  -17.9441   14.7705   25.6526 C   0  0  0  0  0  0  0  0  0  0  0  0
  -17.3298   13.9136   24.5514 C   0  0  0  0  0  0  0  0  0  0  0  0
  -20.2016   14.0638   26.7033 C   0  0  0  0  0  0  0  0  0  0  0  0
  -21.1583   13.0876   26.5053 C   0  0  0  0  0  0  0  0  0  0  0  0
  -22.5310   13.3528   26.6872 C   0  0  0  0  0  0  0  0  0  0  0  0
  -23.4583   12.2121   26.3214 C   0  0  0  0  0  0  0  0  0  0  0  0
  -22.9489   14.4703   27.2775 N   0  0  0  0  0  0  0  0  0  0  0  0
  -21.9729   15.4106   27.4018 C   0  0  0  0  0  0  0  0  0  0  0  0
  -22.1611   16.5777   27.9202 N   0  0  0  0  0  0  0  0  0  0  0  0
  -20.9253   17.1868   27.8361 C   0  0  0  0  0  0  0  0  0  0  0  0
  -20.0284   16.4646   27.1790 N   0  0  0  0  0  0  0  0  0  0  0  0
  -20.7068   15.3162   26.9489 N   0  0  0  0  0  0  0  0  0  0  0  0
  -17.3090   14.5674   28.7537 H   0  0  0  0  0  0  0  0  0  0  0  0
  -18.8656   13.9289   29.2233 H   0  0  0  0  0  0  0  0  0  0  0  0
  -17.2582   12.9581   29.4394 H   0  0  0  0  0  0  0  0  0  0  0  0
  -17.1425   12.6831   27.0354 H   0  0  0  0  0  0  0  0  0  0  0  0
  -18.7951   12.2025   27.5902 H   0  0  0  0  0  0  0  0  0  0  0  0
  -18.5505   15.5424   25.1734 H   0  0  0  0  0  0  0  0  0  0  0  0
  -17.1744   15.2397   26.2716 H   0  0  0  0  0  0  0  0  0  0  0  0
  -16.5776   13.2270   24.9475 H   0  0  0  0  0  0  0  0  0  0  0  0
  -18.1537   13.3190   24.1526 H   0  0  0  0  0  0  0  0  0  0  0  0
  -16.7655   14.4758   23.8042 H   0  0  0  0  0  0  0  0  0  0  0  0
  -20.9087   12.0888   26.1642 H   0  0  0  0  0  0  0  0  0  0  0  0
  -24.2676   12.2475   27.0542 H   0  0  0  0  0  0  0  0  0  0  0  0
  -23.8561   12.3590   25.3156 H   0  0  0  0  0  0  0  0  0  0  0  0
  -22.9739   11.2344   26.3820 H   0  0  0  0  0  0  0  0  0  0  0  0
  -20.7641   18.1857   28.2120 H   0  0  0  0  0  0  0  0  0  0  0  0
  1  2  1  0  0  0  0
  1 16  1  0  0  0  0
  1 17  1  0  0  0  0
  1 18  1  0  0  0  0
  2  3  1  0  0  0  0
  2 19  1  0  0  0  0
  2 20  1  0  0  0  0
  3  4  1  0  0  0  0
  3  6  1  0  0  0  0
  4  5  1  0  0  0  0
  4 21  1  0  0  0  0
  4 22  1  0  0  0  0
  5 23  1  0  0  0  0
  5 24  1  0  0  0  0
  5 25  1  0  0  0  0
  6  7  2  0  0  0  0
  6 15  1  0  0  0  0
  7  8  1  0  0  0  0
  7 26  1  0  0  0  0
  8  9  1  0  0  0  0
  8 10  2  0  0  0  0
  9 27  1  0  0  0  0
  9 28  1  0  0  0  0
  9 29  1  0  0  0  0
 10 11  1  0  0  0  0
 11 12  2  0  0  0  0
 11 15  1  0  0  0  0
 12 13  1  0  0  0  0
 13 14  2  0  0  0  0
 13 30  1  0  0  0  0
 14 15  1  0  0  0  0
M  END
$$$$
