MD_2_clus1
  MOE2019           3D

 26 28  0  0  0  0  0  0  0  0999 V2000
  -22.5787   11.2514   32.3220 O   0  0  0  0  0  0  0  0  0  0  0  0
  -21.8794   11.7435   31.4440 C   0  0  0  0  0  0  0  0  0  0  0  0
  -22.1559   13.0298   31.0884 N   0  0  0  0  0  0  0  0  0  0  0  0
  -22.9151   14.0402   31.8816 C   0  0  0  0  0  0  0  0  0  0  0  0
  -24.0070   14.7478   31.1478 C   0  0  0  0  0  0  0  0  0  0  0  0
  -22.7586   15.5471   31.4570 C   0  0  0  0  0  0  0  0  0  0  0  0
  -20.7138   11.0278   30.7497 C   0  0  0  0  0  0  0  0  0  0  0  0
  -19.6290   11.6800   30.2105 C   0  0  0  0  0  0  0  0  0  0  0  0
  -18.6253   10.9350   29.6125 C   0  0  0  0  0  0  0  0  0  0  0  0
  -18.6525    9.5781   29.7347 C   0  0  0  0  0  0  0  0  0  0  0  0
  -17.6767    8.7077   29.3673 O   0  0  0  0  0  0  0  0  0  0  0  0
  -18.0861    7.4180   29.7940 C   0  0  0  0  0  0  0  0  0  0  0  0
  -19.3615    7.5580   30.4062 O   0  0  0  0  0  0  0  0  0  0  0  0
  -19.6989    8.9067   30.2772 C   0  0  0  0  0  0  0  0  0  0  0  0
  -20.7211    9.6670   30.8785 C   0  0  0  0  0  0  0  0  0  0  0  0
  -21.6482   13.2758   30.2516 H   0  0  0  0  0  0  0  0  0  0  0  0
  -22.9730   13.8564   32.9513 H   0  0  0  0  0  0  0  0  0  0  0  0
  -24.1602   14.4729   30.1087 H   0  0  0  0  0  0  0  0  0  0  0  0
  -24.8091   15.1565   31.7546 H   0  0  0  0  0  0  0  0  0  0  0  0
  -22.6542   16.3031   32.2293 H   0  0  0  0  0  0  0  0  0  0  0  0
  -22.0151   15.6165   30.6682 H   0  0  0  0  0  0  0  0  0  0  0  0
  -19.5338   12.7616   30.1568 H   0  0  0  0  0  0  0  0  0  0  0  0
  -17.7477   11.3592   29.1308 H   0  0  0  0  0  0  0  0  0  0  0  0
  -18.2091    6.7550   28.9256 H   0  0  0  0  0  0  0  0  0  0  0  0
  -17.3990    6.9735   30.5291 H   0  0  0  0  0  0  0  0  0  0  0  0
  -21.4292    9.0451   31.4220 H   0  0  0  0  0  0  0  0  0  0  0  0
  1  2  2  0  0  0  0
  2  3  1  0  0  0  0
  2  7  1  0  0  0  0
  3  4  1  0  0  0  0
  3 16  1  0  0  0  0
  4  5  1  0  0  0  0
  4  6  1  0  0  0  0
  4 17  1  0  0  0  0
  5  6  1  0  0  0  0
  5 18  1  0  0  0  0
  5 19  1  0  0  0  0
  6 20  1  0  0  0  0
  6 21  1  0  0  0  0
  7  8  1  0  0  0  0
  7 15  2  0  0  0  0
  8  9  2  0  0  0  0
  8 22  1  0  0  0  0
  9 10  1  0  0  0  0
  9 23  1  0  0  0  0
 10 11  1  0  0  0  0
 10 14  2  0  0  0  0
 11 12  1  0  0  0  0
 12 13  1  0  0  0  0
 12 24  1  0  0  0  0
 12 25  1  0  0  0  0
 13 14  1  0  0  0  0
 14 15  1  0  0  0  0
 15 26  1  0  0  0  0
M  END
$$$$
