MD_1_clus3
  MOE2019           3D

 39 40  0  0  0  0  0  0  0  0999 V2000
  -24.2894   10.1846   30.3584 C   0  0  0  0  0  0  0  0  0  0  0  0
  -23.5100   11.4811   30.3318 N   0  3  0  0  0  0  0  0  0  0  0  0
  -24.1828   12.7093   29.7367 C   0  0  0  0  0  0  0  0  0  0  0  0
  -23.3049   13.9924   29.8623 C   0  0  0  0  0  0  0  0  0  0  0  0
  -21.9286   13.8368   29.3568 N   0  0  0  0  0  0  0  0  0  0  0  0
  -21.2854   12.5197   29.6893 C   0  0  0  0  0  0  0  0  0  0  0  0
  -22.1346   11.2421   29.7157 C   0  0  0  0  0  0  0  0  0  0  0  0
  -21.4135   14.7081   28.4689 C   0  0  0  0  0  0  0  0  0  0  0  0
  -22.0298   15.7419   28.0569 O   0  0  0  0  0  0  0  0  0  0  0  0
  -20.0030   14.4174   27.9299 C   0  0  0  0  0  0  0  0  0  0  0  0
  -19.8946   13.3875   26.9547 O   0  0  0  0  0  0  0  0  0  0  0  0
  -18.8857   13.2431   26.0408 C   0  0  0  0  0  0  0  0  0  0  0  0
  -18.1158   14.2590   25.5389 C   0  0  0  0  0  0  0  0  0  0  0  0
  -17.0479   14.0508   24.7250 C   0  0  0  0  0  0  0  0  0  0  0  0
  -16.7657   12.7560   24.3323 C   0  0  0  0  0  0  0  0  0  0  0  0
  -15.5397   12.4728   23.5299 C   0  0  0  0  0  0  0  0  0  0  0  0
  -17.6226   11.7111   24.7045 C   0  0  0  0  0  0  0  0  0  0  0  0
  -18.6707   11.9616   25.6246 C   0  0  0  0  0  0  0  0  0  0  0  0
  -25.2171   10.3107   30.9191 H   0  0  0  0  0  0  0  0  0  0  0  0
  -24.4974    9.9197   29.3210 H   0  0  0  0  0  0  0  0  0  0  0  0
  -23.6487    9.3830   30.7291 H   0  0  0  0  0  0  0  0  0  0  0  0
  -24.4925   12.3910   28.7399 H   0  0  0  0  0  0  0  0  0  0  0  0
  -25.0666   12.8798   30.3542 H   0  0  0  0  0  0  0  0  0  0  0  0
  -23.9253   14.8076   29.4815 H   0  0  0  0  0  0  0  0  0  0  0  0
  -23.2457   14.2804   30.9147 H   0  0  0  0  0  0  0  0  0  0  0  0
  -20.4591   12.2374   29.0334 H   0  0  0  0  0  0  0  0  0  0  0  0
  -20.9079   12.6517   30.7072 H   0  0  0  0  0  0  0  0  0  0  0  0
  -21.5546   10.4746   30.2308 H   0  0  0  0  0  0  0  0  0  0  0  0
  -22.3260   10.8702   28.7082 H   0  0  0  0  0  0  0  0  0  0  0  0
  -19.5845   15.3267   27.4906 H   0  0  0  0  0  0  0  0  0  0  0  0
  -19.3131   14.2005   28.7489 H   0  0  0  0  0  0  0  0  0  0  0  0
  -18.3415   15.2640   25.8863 H   0  0  0  0  0  0  0  0  0  0  0  0
  -16.4883   14.8965   24.3341 H   0  0  0  0  0  0  0  0  0  0  0  0
  -14.8360   12.0152   24.2279 H   0  0  0  0  0  0  0  0  0  0  0  0
  -15.7763   11.7336   22.7617 H   0  0  0  0  0  0  0  0  0  0  0  0
  -15.1206   13.3986   23.1298 H   0  0  0  0  0  0  0  0  0  0  0  0
  -17.4918   10.7013   24.3244 H   0  0  0  0  0  0  0  0  0  0  0  0
  -19.3365   11.1860   25.9948 H   0  0  0  0  0  0  0  0  0  0  0  0
  -23.2953   11.7542   31.3047 H   0  0  0  0  0  0  0  0  0  0  0  0
  1  2  1  0  0  0  0
  1 19  1  0  0  0  0
  1 20  1  0  0  0  0
  1 21  1  0  0  0  0
  2  3  1  0  0  0  0
  2  7  1  0  0  0  0
  2 39  1  0  0  0  0
  3  4  1  0  0  0  0
  3 22  1  0  0  0  0
  3 23  1  0  0  0  0
  4  5  1  0  0  0  0
  4 24  1  0  0  0  0
  4 25  1  0  0  0  0
  5  6  1  0  0  0  0
  5  8  1  0  0  0  0
  6  7  1  0  0  0  0
  6 26  1  0  0  0  0
  6 27  1  0  0  0  0
  7 28  1  0  0  0  0
  7 29  1  0  0  0  0
  8  9  2  0  0  0  0
  8 10  1  0  0  0  0
 10 11  1  0  0  0  0
 10 30  1  0  0  0  0
 10 31  1  0  0  0  0
 11 12  1  0  0  0  0
 12 13  1  0  0  0  0
 12 18  2  0  0  0  0
 13 14  2  0  0  0  0
 13 32  1  0  0  0  0
 14 15  1  0  0  0  0
 14 33  1  0  0  0  0
 15 16  1  0  0  0  0
 15 17  2  0  0  0  0
 16 34  1  0  0  0  0
 16 35  1  0  0  0  0
 16 36  1  0  0  0  0
 17 18  1  0  0  0  0
 17 37  1  0  0  0  0
 18 38  1  0  0  0  0
M  CHG  1   2   1
M  END
$$$$
