MD_1_clus4
  MOE2019           3D

 24 24  0  0  0  0  0  0  0  0999 V2000
  -15.4951   13.4598   26.8896 C   0  0  0  0  0  0  0  0  0  0  0  0
  -16.0196   13.1812   25.4990 C   0  0  0  0  0  0  0  0  0  0  0  0
  -17.2457   13.9401   25.2695 O   0  0  0  0  0  0  0  0  0  0  0  0
  -17.8406   13.7182   24.1051 C   0  0  0  0  0  0  0  0  0  0  0  0
  -17.3056   13.2324   23.0905 O   0  0  0  0  0  0  0  0  0  0  0  0
  -19.1801   14.0400   24.0241 N   0  0  0  0  0  0  0  0  0  0  0  0
  -19.9202   14.1232   22.7152 C   0  0  0  0  0  0  0  0  0  0  0  0
  -21.4458   14.0203   22.9070 C   0  0  0  0  0  0  0  0  0  0  0  0
  -21.7883   15.1008   23.9117 O   0  0  0  0  0  0  0  0  0  0  0  0
  -21.3653   14.7599   25.2384 C   0  0  0  0  0  0  0  0  0  0  0  0
  -19.8275   14.6973   25.2422 C   0  0  0  0  0  0  0  0  0  0  0  0
  -15.4900   14.5498   26.9492 H   0  0  0  0  0  0  0  0  0  0  0  0
  -16.1562   13.0462   27.6537 H   0  0  0  0  0  0  0  0  0  0  0  0
  -14.5058   13.0044   26.9746 H   0  0  0  0  0  0  0  0  0  0  0  0
  -15.2113   13.4139   24.8001 H   0  0  0  0  0  0  0  0  0  0  0  0
  -16.2253   12.1081   25.5241 H   0  0  0  0  0  0  0  0  0  0  0  0
  -19.6384   15.0170   22.1545 H   0  0  0  0  0  0  0  0  0  0  0  0
  -19.5715   13.2520   22.1546 H   0  0  0  0  0  0  0  0  0  0  0  0
  -22.0284   14.1490   21.9920 H   0  0  0  0  0  0  0  0  0  0  0  0
  -21.6540   13.0873   23.4368 H   0  0  0  0  0  0  0  0  0  0  0  0
  -21.6359   15.5948   25.8907 H   0  0  0  0  0  0  0  0  0  0  0  0
  -21.9047   13.8903   25.6232 H   0  0  0  0  0  0  0  0  0  0  0  0
  -19.4739   14.1009   26.0872 H   0  0  0  0  0  0  0  0  0  0  0  0
  -19.3411   15.6364   25.5182 H   0  0  0  0  0  0  0  0  0  0  0  0
  1  2  1  0  0  0  0
  1 12  1  0  0  0  0
  1 13  1  0  0  0  0
  1 14  1  0  0  0  0
  2  3  1  0  0  0  0
  2 15  1  0  0  0  0
  2 16  1  0  0  0  0
  3  4  1  0  0  0  0
  4  5  2  0  0  0  0
  4  6  1  0  0  0  0
  6  7  1  0  0  0  0
  6 11  1  0  0  0  0
  7  8  1  0  0  0  0
  7 17  1  0  0  0  0
  7 18  1  0  0  0  0
  8  9  1  0  0  0  0
  8 19  1  0  0  0  0
  8 20  1  0  0  0  0
  9 10  1  0  0  0  0
 10 11  1  0  0  0  0
 10 21  1  0  0  0  0
 10 22  1  0  0  0  0
 11 23  1  0  0  0  0
 11 24  1  0  0  0  0
M  END
$$$$
