MD_3_clus2
  MOE2019           3D

 29 30  0  0  1  0  0  0  0  0999 V2000
  -19.0218   14.0199   24.8594 C   0  0  0  0  0  0  0  0  0  0  0  0
  -18.6619   12.9451   25.8553 C   0  0  3  0  0  0  0  0  0  0  0  0
  -18.4278   11.7998   25.1348 O   0  0  0  0  0  0  0  0  0  0  0  0
  -19.8362   12.7366   26.7426 C   0  0  0  0  0  0  0  0  0  0  0  0
  -20.8825   11.7795   26.5881 C   0  0  0  0  0  0  0  0  0  0  0  0
  -21.7494   11.9069   27.6488 N   0  0  0  0  0  0  0  0  0  0  0  0
  -21.2841   13.0560   28.2957 N   0  0  0  0  0  0  0  0  0  0  0  0
  -20.0531   13.4654   27.8574 C   0  0  0  0  0  0  0  0  0  0  0  0
  -22.0111   13.5631   29.4461 C   0  0  0  0  0  0  0  0  0  0  0  0
  -22.1424   12.7204   30.7300 C   0  0  0  0  0  0  0  0  0  0  0  0
  -23.2221   13.4222   31.5407 C   0  0  0  0  0  0  0  0  0  0  0  0
  -24.1924   14.0395   30.4805 C   0  0  0  0  0  0  0  0  0  0  0  0
  -23.4879   14.0094   29.1805 C   0  0  0  0  0  0  0  0  0  0  0  0
  -19.1509   14.9043   25.4868 H   0  0  0  0  0  0  0  0  0  0  0  0
  -18.1637   14.2265   24.2159 H   0  0  0  0  0  0  0  0  0  0  0  0
  -19.9676   13.7880   24.3641 H   0  0  0  0  0  0  0  0  0  0  0  0
  -17.7752   13.1988   26.4430 H   0  0  0  0  0  0  0  0  0  0  0  0
  -18.7131   11.8481   24.2054 H   0  0  0  0  0  0  0  0  0  0  0  0
  -21.0591   10.9899   25.8684 H   0  0  0  0  0  0  0  0  0  0  0  0
  -19.4862   14.2538   28.3371 H   0  0  0  0  0  0  0  0  0  0  0  0
  -21.4221   14.4337   29.7452 H   0  0  0  0  0  0  0  0  0  0  0  0
  -22.4569   11.6998   30.5019 H   0  0  0  0  0  0  0  0  0  0  0  0
  -21.1875   12.5752   31.2406 H   0  0  0  0  0  0  0  0  0  0  0  0
  -23.6910   12.7468   32.2597 H   0  0  0  0  0  0  0  0  0  0  0  0
  -22.7130   14.1337   32.1938 H   0  0  0  0  0  0  0  0  0  0  0  0
  -25.0692   13.4070   30.3298 H   0  0  0  0  0  0  0  0  0  0  0  0
  -24.4333   15.0416   30.8411 H   0  0  0  0  0  0  0  0  0  0  0  0
  -23.5321   15.0328   28.8033 H   0  0  0  0  0  0  0  0  0  0  0  0
  -24.0556   13.3350   28.5356 H   0  0  0  0  0  0  0  0  0  0  0  0
  1  2  1  0  0  0  0
  1 14  1  0  0  0  0
  1 15  1  0  0  0  0
  1 16  1  0  0  0  0
  2  3  1  0  0  0  0
  2  4  1  0  0  0  0
  2 17  1  0  0  0  0
  3 18  1  0  0  0  0
  4  5  1  0  0  0  0
  4  8  2  0  0  0  0
  5  6  2  0  0  0  0
  5 19  1  0  0  0  0
  6  7  1  0  0  0  0
  7  8  1  0  0  0  0
  7  9  1  0  0  0  0
  8 20  1  0  0  0  0
  9 10  1  0  0  0  0
  9 13  1  0  0  0  0
  9 21  1  0  0  0  0
 10 11  1  0  0  0  0
 10 22  1  0  0  0  0
 10 23  1  0  0  0  0
 11 12  1  0  0  0  0
 11 24  1  0  0  0  0
 11 25  1  0  0  0  0
 12 13  1  0  0  0  0
 12 26  1  0  0  0  0
 12 27  1  0  0  0  0
 13 28  1  0  0  0  0
 13 29  1  0  0  0  0
M  END
$$$$
