MD_2_clus1
  MOE2019           3D

 20 20  0  0  0  0  0  0  0  0999 V2000
  -19.1060   14.6402   23.6113 C   0  0  0  0  0  0  0  0  0  0  0  0
  -19.1011   14.8186   25.1423 C   0  0  0  0  0  0  0  0  0  0  0  0
  -19.3358   16.0546   25.7307 C   0  0  0  0  0  0  0  0  0  0  0  0
  -19.1358   16.2276   27.0841 C   0  0  0  0  0  0  0  0  0  0  0  0
  -19.5608   17.3204   27.7362 F   0  0  0  0  0  0  0  0  0  0  0  0
  -18.7458   15.1282   27.8537 C   0  0  0  0  0  0  0  0  0  0  0  0
  -18.5270   13.9035   27.2755 C   0  0  0  0  0  0  0  0  0  0  0  0
  -18.7760   13.7615   25.9555 C   0  0  0  0  0  0  0  0  0  0  0  0
  -18.1953   12.4549   28.1639 S   0  0  0  0  0  0  0  0  0  0  0  0
  -18.2047   11.2889   27.3304 O   0  0  0  0  0  0  0  0  0  0  0  0
  -17.4770   12.5645   29.3847 O   0  0  0  0  0  0  0  0  0  0  0  0
  -19.5820   12.1008   28.9502 N   0  0  0  0  0  0  0  0  0  0  0  0
  -18.3449   15.2773   23.1567 H   0  0  0  0  0  0  0  0  0  0  0  0
  -18.9500   13.6206   23.2553 H   0  0  0  0  0  0  0  0  0  0  0  0
  -20.0580   15.0796   23.3043 H   0  0  0  0  0  0  0  0  0  0  0  0
  -19.7053   16.9159   25.1795 H   0  0  0  0  0  0  0  0  0  0  0  0
  -18.7217   15.2644   28.9325 H   0  0  0  0  0  0  0  0  0  0  0  0
  -18.6416   12.8012   25.4655 H   0  0  0  0  0  0  0  0  0  0  0  0
  -19.6133   11.1444   28.6008 H   0  0  0  0  0  0  0  0  0  0  0  0
  -19.0848   11.9627   29.8276 H   0  0  0  0  0  0  0  0  0  0  0  0
  1  2  1  0  0  0  0
  1 13  1  0  0  0  0
  1 14  1  0  0  0  0
  1 15  1  0  0  0  0
  2  3  1  0  0  0  0
  2  8  2  0  0  0  0
  3  4  2  0  0  0  0
  3 16  1  0  0  0  0
  4  5  1  0  0  0  0
  4  6  1  0  0  0  0
  6  7  2  0  0  0  0
  6 17  1  0  0  0  0
  7  8  1  0  0  0  0
  7  9  1  0  0  0  0
  8 18  1  0  0  0  0
  9 10  2  0  0  0  0
  9 11  2  0  0  0  0
  9 12  1  0  0  0  0
 12 19  1  0  0  0  0
 12 20  1  0  0  0  0
M  END
$$$$
