@<TRIPOS>MOLECULE
****
22 22 1 0 0 
SMALL
USER_CHARGES


@<TRIPOS>ATOM
  1 C      -10.0691    -0.8726     0.8626 C.3   1 <1>   0.2000 
  2 C      -10.0852     0.6587     0.8399 C.3   1 <1>  -0.1600 
  3 C       -9.3240     1.2063    -0.3785 C.3   1 <1>  -0.1600 
  4 C       -7.8813     0.6733    -0.4128 C.3   1 <1>  -0.0800 
  5 C       -7.8674    -0.8649    -0.3871 C.3   1 <1>  -0.1600 
  6 C       -8.6318    -1.4035     0.8333 C.3   1 <1>  -0.1600 
  7 O      -10.6897    -1.3074     2.0488 O.3   1 <1>  -0.6800 
  8 C       -7.1592     1.1851    -1.6649 C.3   1 <1>  -0.2400 
  9 H      -10.6156    -1.2501    -0.0048 H     1 <1>   0.0800 
 10 H      -11.1192     1.0035     0.8091 H     1 <1>   0.0800 
 11 H       -9.6233     1.0338     1.7544 H     1 <1>   0.0800 
 12 H       -9.3095     2.2965    -0.3296 H     1 <1>   0.0800 
 13 H       -9.8463     0.9083    -1.2894 H     1 <1>   0.0800 
 14 H       -7.3515     1.0428     0.4688 H     1 <1>   0.0800 
 15 H       -6.8360    -1.2191    -0.3479 H     1 <1>   0.0800 
 16 H       -8.3304    -1.2491    -1.2979 H     1 <1>   0.0800 
 17 H       -8.6475    -2.4930     0.7953 H     1 <1>   0.0800 
 18 H       -8.1180    -1.0926     1.7448 H     1 <1>   0.0800 
 19 H      -10.6738    -2.2668     2.0719 H     1 <1>   0.4000 
 20 H       -6.1289     0.8272    -1.6707 H     1 <1>   0.0800 
 21 H       -7.1499     2.2757    -1.6667 H     1 <1>   0.0800 
 22 H       -7.6646     0.8317    -2.5647 H     1 <1>   0.0800 
@<TRIPOS>BOND
  1   1   2  1   
  2   1   6  1   
  3   1   7  1   
  4   1   9  1   
  5   2   3  1   
  6   2  10  1   
  7   2  11  1   
  8   3   4  1   
  9   3  12  1   
 10   3  13  1   
 11   4   5  1   
 12   4   8  1   
 13   4  14  1   
 14   5   6  1   
 15   5  15  1   
 16   5  16  1   
 17   6  17  1   
 18   6  18  1   
 19   7  19  1   
 20   8  20  1   
 21   8  21  1   
 22   8  22  1   
@<TRIPOS>SUBSTRUCTURE
  1 ****   4 GROUP 4 **** **** 0

# MOE 2018.01 (io_trps.svl 2018.01)
