@<TRIPOS>MOLECULE
*****
   36    37     0     0     0
SMALL
USER_CHARGES

@<TRIPOS>ATOM
      1 C1         -0.6539   -3.1790    4.7246 C.ar      1 <0>        -0.1500
      2 C2         -5.3384   -2.4527    0.5699 C.ar      1 <0>        -0.1500
      3 C3         -1.5794   -2.8732    3.7269 C.ar      1 <0>        -0.1500
      4 C4          0.3467   -2.2639    5.0520 C.ar      1 <0>        -0.1500
      5 C5         -5.4644   -1.2046   -0.0400 C.ar      1 <0>        -0.1500
      6 C6         -4.1429   -3.1635    0.4636 C.ar      1 <0>        -0.1500
      7 C7         -1.5044   -1.6524    3.0565 C.ar      1 <0>        -0.1500
      8 C8          0.4218   -1.0431    4.3815 C.ar      1 <0>        -0.1500
      9 C9         -4.3949   -0.6673   -0.7563 C.ar      1 <0>        -0.1500
     10 C10        -3.0734   -2.6261   -0.2527 C.ar      1 <0>        -0.1500
     11 C11        -0.5038   -0.7372    3.3838 C.ar      1 <0>        -0.1435
     12 C12        -3.1994   -1.3780   -0.8627 C.ar      1 <0>        -0.0090
     13 C13        -0.1129   -0.4032    0.3819 C.2       1 <0>         1.1253
     14 C14        -0.4218    0.5839    2.6585 C.3       1 <0>         0.1435
     15 C15         0.4525    0.5498    1.4036 C.3       1 <0>         0.0610
     16 N1         -1.0366    0.1661   -0.5433 N.am      1 <0>        -0.7943
     17 O1         -2.3894    0.2270   -2.7488 O.2       1 <0>        -0.6500
     18 O2         -1.0114   -1.8052   -2.2005 O.2       1 <0>        -0.6500
     19 O3          0.3060   -1.6227    0.4490 O.3       1 <0>        -0.4500
     20 S1         -1.8451   -0.6979   -1.7735 S.o2      1 <0>         1.4470
     21 H1         -0.7133   -4.1291    5.2475 H         1 <0>         0.1500
     22 H2         -6.1710   -2.8720    1.1273 H         1 <0>         0.1500
     23 H3         -2.3593   -3.5851    3.4727 H         1 <0>         0.1500
     24 H4          1.0668   -2.5012    5.8295 H         1 <0>         0.1500
     25 H5         -6.3954   -0.6514    0.0416 H         1 <0>         0.1500
     26 H6         -4.0454   -4.1355    0.9380 H         1 <0>         0.1500
     27 H7         -2.2297   -1.4227    2.2803 H         1 <0>         0.1500
     28 H8          1.2048   -0.3363    4.6432 H         1 <0>         0.1500
     29 H9         -4.5040    0.3055   -1.2284 H         1 <0>         0.1500
     30 H10        -2.1472   -3.1890   -0.3302 H         1 <0>         0.1500
     31 H11        -0.0261    1.3334    3.3556 H         1 <0>         0.0000
     32 H12        -1.4310    0.9224    2.3903 H         1 <0>         0.0000
     33 H13         0.4488    1.5478    0.9511 H         1 <0>         0.0000
     34 H14         1.4878    0.2869    1.6426 H         1 <0>         0.0000
     35 H15        -1.2570    1.1670   -0.4613 H         1 <0>         0.4200
     36 H16         0.9531   -1.7519    1.1813 H         1 <0>         0.5000
@<TRIPOS>BOND
     1    1    3 ar
     2    1    4 ar
     3    2    5 ar
     4    2    6 ar
     5    3    7 ar
     6    4    8 ar
     7    5    9 ar
     8    6   10 ar
     9    7   11 ar
    10    8   11 ar
    11    9   12 ar
    12   10   12 ar
    13   11   14 1
    14   12   20 1
    15   13   15 1
    16   13   16 am
    17   13   19 2
    18   14   15 1
    19   16   20 1
    20   17   20 2
    21   18   20 2
    22    1   21 1
    23    2   22 1
    24    3   23 1
    25    4   24 1
    26    5   25 1
    27    6   26 1
    28    7   27 1
    29    8   28 1
    30    9   29 1
    31   10   30 1
    32   14   31 1
    33   14   32 1
    34   15   33 1
    35   15   34 1
    36   16   35 1
    37   19   36 1
