@<TRIPOS>MOLECULE
*****
   34    35     0     0     0
SMALL
USER_CHARGES

@<TRIPOS>ATOM
      1 C1         -4.0357   -2.1334   -0.5307 C.ar      1 <0>        -0.1500
      2 C2         -0.9096   -5.2463   -0.4612 C.ar      1 <0>        -0.1500
      3 C3         -2.9034   -2.2512   -1.3367 C.ar      1 <0>        -0.1500
      4 C4         -4.3427   -0.9107    0.0664 C.ar      1 <0>        -0.1500
      5 C5         -0.1978   -4.4839   -1.3873 C.ar      1 <0>        -0.1500
      6 C6         -0.8498   -4.9297    0.8959 C.ar      1 <0>        -0.1500
      7 C7         -2.0781   -1.1463   -1.5457 C.ar      1 <0>        -0.1500
      8 C8         -3.5174    0.1942   -0.1426 C.ar      1 <0>        -0.1500
      9 C9          0.5739   -3.4049   -0.9563 C.ar      1 <0>        -0.1500
     10 C10        -0.0780   -3.8507    1.3270 C.ar      1 <0>        -0.1500
     11 C11        -2.3851    0.0764   -0.9486 C.ar      1 <0>        -0.1435
     12 C12         0.6338   -3.0882    0.4009 C.ar      1 <0>        -0.0090
     13 C13         0.6075    0.2290   -0.2335 C.2       1 <0>         0.2890
     14 C14        -1.4922    1.2724   -1.1741 C.3       1 <0>         0.1435
     15 C15        -0.3720    1.3902   -0.1372 C.3       1 <0>         0.0610
     16 N1          0.6442   -0.4483    0.9169 N.2       1 <0>        -0.3201
     17 O1          1.2124    0.0074   -1.2817 O.2       1 <0>        -0.5700
     18 O2          2.7097   -1.6756   -0.0309 O.2       1 <0>        -0.6500
     19 O3          2.0536   -2.1086    2.2946 O.2       1 <0>        -0.6500
     20 S1          1.6334   -1.6966    0.9576 S.o2      1 <0>         0.8491
     21 H1         -4.6790   -2.9935   -0.3691 H         1 <0>         0.1500
     22 H2         -1.5103   -6.0870   -0.7961 H         1 <0>         0.1500
     23 H3         -2.6648   -3.2029   -1.8025 H         1 <0>         0.1500
     24 H4         -5.2248   -0.8184    0.6931 H         1 <0>         0.1500
     25 H5         -0.2433   -4.7307   -2.4439 H         1 <0>         0.1500
     26 H6         -1.4036   -5.5239    1.6167 H         1 <0>         0.1500
     27 H7         -1.1978   -1.2474   -2.1751 H         1 <0>         0.1500
     28 H8         -3.7643    1.1428    0.3267 H         1 <0>         0.1500
     29 H9          1.1253   -2.8180   -1.6860 H         1 <0>         0.1500
     30 H10        -0.0376   -3.6138    2.3867 H         1 <0>         0.1500
     31 H11        -1.0651    1.2308   -2.1842 H         1 <0>         0.0000
     32 H12        -2.1104    2.1786   -1.1453 H         1 <0>         0.0000
     33 H13        -0.7752    1.4882    0.8788 H         1 <0>         0.0000
     34 H14         0.2011    2.3071   -0.3252 H         1 <0>         0.0000
@<TRIPOS>BOND
     1    1    3 ar
     2    1    4 ar
     3    2    5 ar
     4    2    6 ar
     5    3    7 ar
     6    4    8 ar
     7    5    9 ar
     8    6   10 ar
     9    7   11 ar
    10    8   11 ar
    11    9   12 ar
    12   10   12 ar
    13   11   14 1
    14   12   20 1
    15   13   15 1
    16   13   16 1
    17   13   17 2
    18   14   15 1
    19   16   20 1
    20   18   20 2
    21   19   20 2
    22    1   21 1
    23    2   22 1
    24    3   23 1
    25    4   24 1
    26    5   25 1
    27    6   26 1
    28    7   27 1
    29    8   28 1
    30    9   29 1
    31   10   30 1
    32   14   31 1
    33   14   32 1
    34   15   33 1
    35   15   34 1
