@<TRIPOS>MOLECULE
*****
   34    35     0     0     0
SMALL
USER_CHARGES

@<TRIPOS>ATOM
      1 C1          5.6450   -0.4738    0.8438 C.ar      1 <0>        -0.1500
      2 C2          2.3101    3.0786    3.3491 C.ar      1 <0>        -0.1500
      3 C3          5.0916    0.6814    0.2920 C.ar      1 <0>        -0.1500
      4 C4          4.9717   -1.6906    0.7347 C.ar      1 <0>        -0.1500
      5 C5          1.0374    3.6484    3.3172 C.ar      1 <0>        -0.1500
      6 C6          2.4942    1.7591    2.9359 C.ar      1 <0>        -0.1500
      7 C7          3.8648    0.6201   -0.3690 C.ar      1 <0>        -0.1500
      8 C8          3.7449   -1.7520    0.0738 C.ar      1 <0>        -0.1500
      9 C9         -0.0514    2.8986    2.8722 C.ar      1 <0>        -0.1500
     10 C10         1.4055    1.0094    2.4908 C.ar      1 <0>        -0.1500
     11 C11         3.1914   -0.5967   -0.4781 C.ar      1 <0>        -0.1435
     12 C12         0.1326    1.5791    2.4590 C.ar      1 <0>        -0.0090
     13 C13         0.7052   -0.4314   -0.2607 C.2       1 <0>        -0.2882
     14 C14        -0.2416    0.5221   -0.3944 C.2       1 <0>        -0.1233
     15 C15         1.8646   -0.6637   -1.1924 C.3       1 <0>         0.2817
     16 N1         -1.3387    0.8795    0.3180 N.2       1 <0>        -0.3401
     17 O1         -0.8980   -0.7488    2.2747 O.2       1 <0>        -0.6500
     18 O2         -2.3788    1.1706    2.6646 O.2       1 <0>        -0.6500
     19 O3         -0.1133    1.3684   -1.4942 O.3       1 <0>        -0.5267
     20 S1         -1.2763    0.6087    1.8867 S.o2      1 <0>         0.8491
     21 H1          6.6009   -0.4261    1.3572 H         1 <0>         0.1500
     22 H2          3.1583    3.6617    3.6961 H         1 <0>         0.1500
     23 H3          5.6162    1.6287    0.3759 H         1 <0>         0.1500
     24 H4          5.4029   -2.5905    1.1633 H         1 <0>         0.1500
     25 H5          0.8934    4.6753    3.6398 H         1 <0>         0.1500
     26 H6          3.4852    1.3157    2.9615 H         1 <0>         0.1500
     27 H7          3.4411    1.5254   -0.7957 H         1 <0>         0.1500
     28 H8          3.2274   -2.7043   -0.0063 H         1 <0>         0.1500
     29 H9         -1.0389    3.3519    2.8522 H         1 <0>         0.1500
     30 H10         1.5601   -0.0180    2.1725 H         1 <0>         0.1500
     31 H11         0.6559   -1.1246    0.5764 H         1 <0>         0.1500
     32 H12         1.8713    0.0449   -2.0293 H         1 <0>         0.0000
     33 H13         1.7464   -1.6512   -1.6569 H         1 <0>         0.0000
     34 H14        -0.8636    1.9859   -1.4419 H         1 <0>         0.4500
@<TRIPOS>BOND
     1    1    3 ar
     2    1    4 ar
     3    2    5 ar
     4    2    6 ar
     5    3    7 ar
     6    4    8 ar
     7    5    9 ar
     8    6   10 ar
     9    7   11 ar
    10    8   11 ar
    11    9   12 ar
    12   10   12 ar
    13   11   15 1
    14   12   20 1
    15   13   14 2
    16   13   15 1
    17   14   16 1
    18   14   19 1
    19   16   20 1
    20   17   20 2
    21   18   20 2
    22    1   21 1
    23    2   22 1
    24    3   23 1
    25    4   24 1
    26    5   25 1
    27    6   26 1
    28    7   27 1
    29    8   28 1
    30    9   29 1
    31   10   30 1
    32   13   31 1
    33   15   32 1
    34   15   33 1
    35   19   34 1
