@<TRIPOS>MOLECULE
*****
   35    36     0     0     0
SMALL
USER_CHARGES

@<TRIPOS>ATOM
      1 C1          2.4041   -4.3109   -2.0131 C.ar      1 <0>        -0.1500
      2 C2          5.6804   -1.7569    2.4620 C.ar      1 <0>        -0.1500
      3 C3          2.4039   -3.3446   -3.0191 C.ar      1 <0>        -0.1500
      4 C4          1.3881   -4.3230   -1.0575 C.ar      1 <0>        -0.1500
      5 C5          5.1745   -0.4681    2.6303 C.ar      1 <0>        -0.1500
      6 C6          4.8141   -2.8168    2.1936 C.ar      1 <0>        -0.1500
      7 C7          1.3877   -2.3904   -3.0693 C.ar      1 <0>        -0.1500
      8 C8          0.3719   -3.3688   -1.1077 C.ar      1 <0>        -0.1500
      9 C9          3.8022   -0.2389    2.5304 C.ar      1 <0>        -0.1500
     10 C10         3.4419   -2.5877    2.0937 C.ar      1 <0>        -0.1500
     11 C11         0.3717   -2.4025   -2.1137 C.ar      1 <0>        -0.1435
     12 C12         2.9359   -1.2988    2.2620 C.ar      1 <0>        -0.0090
     13 C13        -0.1919   -0.4115    0.0878 C.2       1 <0>         0.5390
     14 C14        -0.7282   -1.3699   -2.1673 C.3       1 <0>         0.1435
     15 C15        -0.4053   -0.1061   -1.3695 C.3       1 <0>         0.0610
     16 N1          0.9833   -0.6797    0.5560 N.2       1 <0>        -0.6380
     17 O1          0.5340   -2.2626    2.4544 O.2       1 <0>        -0.6500
     18 O2          0.9485    0.1756    2.9429 O.2       1 <0>        -0.6500
     19 O3         -1.3100   -0.3485    0.8439 O.3       1 <0>        -0.6000
     20 S1          1.1930   -1.0079    2.1384 S.o2      1 <0>         1.4970
     21 H1          3.1947   -5.0546   -1.9749 H         1 <0>         0.1500
     22 H2          6.7488   -1.9362    2.5404 H         1 <0>         0.1500
     23 H3          3.1943   -3.3357   -3.7639 H         1 <0>         0.1500
     24 H4          1.3873   -5.0758   -0.2748 H         1 <0>         0.1500
     25 H5          5.8485    0.3572    2.8403 H         1 <0>         0.1500
     26 H6          5.2083   -3.8202    2.0634 H         1 <0>         0.1500
     27 H7          1.3958   -1.6412   -3.8566 H         1 <0>         0.1500
     28 H8         -0.4155   -3.3859   -0.3589 H         1 <0>         0.1500
     29 H9          3.4184    0.7689    2.6641 H         1 <0>         0.1500
     30 H10         2.7761   -3.4208    1.8856 H         1 <0>         0.1500
     31 H11        -0.9412   -1.1111   -3.2122 H         1 <0>         0.0000
     32 H12        -1.6486   -1.8211   -1.7757 H         1 <0>         0.0000
     33 H13         0.5032    0.3628   -1.7648 H         1 <0>         0.0000
     34 H14        -1.2087    0.6345   -1.4604 H         1 <0>         0.0000
     35 H15        -2.1073   -0.1123    0.3388 H         1 <0>         0.4500
@<TRIPOS>BOND
     1    1    3 ar
     2    1    4 ar
     3    2    5 ar
     4    2    6 ar
     5    3    7 ar
     6    4    8 ar
     7    5    9 ar
     8    6   10 ar
     9    7   11 ar
    10    8   11 ar
    11    9   12 ar
    12   10   12 ar
    13   11   14 1
    14   12   20 1
    15   13   15 1
    16   13   16 2
    17   13   19 1
    18   14   15 1
    19   16   20 1
    20   17   20 2
    21   18   20 2
    22    1   21 1
    23    2   22 1
    24    3   23 1
    25    4   24 1
    26    5   25 1
    27    6   26 1
    28    7   27 1
    29    8   28 1
    30    9   29 1
    31   10   30 1
    32   14   31 1
    33   14   32 1
    34   15   33 1
    35   15   34 1
    36   19   35 1
