@<TRIPOS>MOLECULE
*****
   35    36     0     0     0
SMALL
USER_CHARGES

@<TRIPOS>ATOM
      1 C1         -1.7433    0.5925   -5.7835 C.ar      1 <0>        -0.1500
      2 C2          4.4962    2.1331    3.9653 C.ar      1 <0>        -0.1500
      3 C3         -1.7803    1.8231   -5.1279 C.ar      1 <0>        -0.1500
      4 C4         -1.7673   -0.5915   -5.0463 C.ar      1 <0>        -0.1500
      5 C5          3.1769    1.9049    4.3563 C.ar      1 <0>        -0.1500
      6 C6          5.0269    1.4512    2.8702 C.ar      1 <0>        -0.1500
      7 C7         -1.8412    1.8699   -3.7352 C.ar      1 <0>        -0.1500
      8 C8         -1.8282   -0.5447   -3.6536 C.ar      1 <0>        -0.1500
      9 C9          2.3883    0.9948    3.6524 C.ar      1 <0>        -0.1500
     10 C10         4.2383    0.5411    2.1663 C.ar      1 <0>        -0.1500
     11 C11        -1.8651    0.6859   -2.9980 C.ar      1 <0>        -0.1435
     12 C12         2.9190    0.3129    2.5574 C.ar      1 <0>        -0.0090
     13 C13        -0.5661    0.7642   -0.8615 C.2       1 <0>        -0.2882
     14 C14        -0.0897   -0.1009    0.0492 C.2       1 <0>         0.2677
     15 C15        -1.9307    0.7357   -1.4924 C.3       1 <0>         0.2817
     16 N1          1.2303    0.1759    0.5008 N.pl3     1 <0>        -0.7490
     17 O1          2.8154   -1.7859    1.0235 O.2       1 <0>        -0.6500
     18 O2          0.8934   -1.3134    2.5784 O.2       1 <0>        -0.6500
     19 O3         -0.7476   -1.1953    0.5492 O.3       1 <0>        -0.5267
     20 S1          1.9196   -0.8436    1.6670 S.o2      1 <0>         1.4470
     21 H1         -1.6973    0.5563   -6.8680 H         1 <0>         0.1500
     22 H2          5.1110    2.8411    4.5134 H         1 <0>         0.1500
     23 H3         -1.7627    2.7451   -5.7018 H         1 <0>         0.1500
     24 H4         -1.7397   -1.5498   -5.5564 H         1 <0>         0.1500
     25 H5          2.7636    2.4348    5.2095 H         1 <0>         0.1500
     26 H6          6.0543    1.6286    2.5665 H         1 <0>         0.1500
     27 H7         -1.8694    2.8333   -3.2329 H         1 <0>         0.1500
     28 H8         -1.8464   -1.4723   -3.0874 H         1 <0>         0.1500
     29 H9          1.3619    0.8239    3.9661 H         1 <0>         0.1500
     30 H10         4.6624    0.0146    1.3157 H         1 <0>         0.1500
     31 H11         0.0608    1.5954   -1.1845 H         1 <0>         0.1500
     32 H12        -2.5403   -0.0981   -1.1264 H         1 <0>         0.0000
     33 H13        -2.4765    1.6354   -1.1794 H         1 <0>         0.0000
     34 H14         1.7315    0.9893    0.1236 H         1 <0>         0.4200
     35 H15        -1.6253   -1.2526    0.1394 H         1 <0>         0.4500
@<TRIPOS>BOND
     1    1    3 ar
     2    1    4 ar
     3    2    5 ar
     4    2    6 ar
     5    3    7 ar
     6    4    8 ar
     7    5    9 ar
     8    6   10 ar
     9    7   11 ar
    10    8   11 ar
    11    9   12 ar
    12   10   12 ar
    13   11   15 1
    14   12   20 1
    15   13   14 2
    16   13   15 1
    17   14   16 1
    18   14   19 1
    19   16   20 1
    20   17   20 2
    21   18   20 2
    22    1   21 1
    23    2   22 1
    24    3   23 1
    25    4   24 1
    26    5   25 1
    27    6   26 1
    28    7   27 1
    29    8   28 1
    30    9   29 1
    31   10   30 1
    32   13   31 1
    33   15   32 1
    34   15   33 1
    35   16   34 1
    36   19   35 1
