@<TRIPOS>MOLECULE
*****
   35    36     0     0     0
SMALL
USER_CHARGES

@<TRIPOS>ATOM
      1 C1          1.1152   -3.9523   -2.2198 C.ar      1 <0>        -0.1500
      2 C2         -2.6951   -2.6005   -3.7548 C.ar      1 <0>        -0.1500
      3 C3         -0.0756   -3.6839   -1.5450 C.ar      1 <0>        -0.1500
      4 C4          2.3218   -3.4503   -1.7318 C.ar      1 <0>        -0.1500
      5 C5         -3.2671   -2.2742   -2.5252 C.ar      1 <0>        -0.1500
      6 C6         -1.7967   -1.7225   -4.3611 C.ar      1 <0>        -0.1500
      7 C7         -0.0600   -2.9134   -0.3823 C.ar      1 <0>        -0.1500
      8 C8          2.3374   -2.6799   -0.5692 C.ar      1 <0>        -0.1500
      9 C9         -2.9408   -1.0697   -1.9019 C.ar      1 <0>        -0.1500
     10 C10        -1.4704   -0.5180   -3.7379 C.ar      1 <0>        -0.1500
     11 C11         1.1465   -2.4114    0.1056 C.ar      1 <0>        -0.1435
     12 C12        -2.0424   -0.1916   -2.5083 C.ar      1 <0>        -0.0090
     13 C13        -0.3535    0.2331    0.5042 C.2       1 <0>         0.7453
     14 C14         1.1640   -1.5775    1.3635 C.3       1 <0>         0.1435
     15 C15         0.9984   -0.0795    1.1091 C.3       1 <0>         0.0610
     16 N1         -0.2845    0.8608   -0.7811 N.am      1 <0>        -0.7943
     17 O1         -1.4043   -0.0532    1.0687 O.2       1 <0>        -0.5700
     18 O2         -1.1869    2.2491   -2.7554 O.2       1 <0>        -0.6500
     19 O3         -2.7348    1.6990   -0.8509 O.2       1 <0>        -0.6500
     20 S1         -1.6316    1.3365   -1.7195 S.o2      1 <0>         1.4470
     21 H1          1.1031   -4.5533   -3.1243 H         1 <0>         0.1500
     22 H2         -2.9493   -3.5380   -4.2409 H         1 <0>         0.1500
     23 H3         -1.0150   -4.0755   -1.9242 H         1 <0>         0.1500
     24 H4          3.2493   -3.6600   -2.2563 H         1 <0>         0.1500
     25 H5         -3.9674   -2.9570   -2.0533 H         1 <0>         0.1500
     26 H6         -1.3522   -1.9766   -5.3188 H         1 <0>         0.1500
     27 H7         -0.9928   -2.7092    0.1367 H         1 <0>         0.1500
     28 H8          3.2821   -2.2929   -0.1965 H         1 <0>         0.1500
     29 H9         -3.3928   -0.8248   -0.9445 H         1 <0>         0.1500
     30 H10        -0.7704    0.1591   -4.2198 H         1 <0>         0.1500
     31 H11         2.1147   -1.7554    1.8818 H         1 <0>         0.0000
     32 H12         0.3779   -1.9216    2.0477 H         1 <0>         0.0000
     33 H13         1.8017    0.3070    0.4725 H         1 <0>         0.0000
     34 H14         1.0620    0.4631    2.0597 H         1 <0>         0.0000
     35 H15         0.6500    1.0397   -1.1705 H         1 <0>         0.4200
@<TRIPOS>BOND
     1    1    3 ar
     2    1    4 ar
     3    2    5 ar
     4    2    6 ar
     5    3    7 ar
     6    4    8 ar
     7    5    9 ar
     8    6   10 ar
     9    7   11 ar
    10    8   11 ar
    11    9   12 ar
    12   10   12 ar
    13   11   14 1
    14   12   20 1
    15   13   15 1
    16   13   16 am
    17   13   17 2
    18   14   15 1
    19   16   20 1
    20   18   20 2
    21   19   20 2
    22    1   21 1
    23    2   22 1
    24    3   23 1
    25    4   24 1
    26    5   25 1
    27    6   26 1
    28    7   27 1
    29    8   28 1
    30    9   29 1
    31   10   30 1
    32   14   31 1
    33   14   32 1
    34   15   33 1
    35   15   34 1
    36   16   35 1
