@<TRIPOS>MOLECULE
*****
   28    28     0     0     0
SMALL
USER_CHARGES

@<TRIPOS>ATOM
      1 C1          4.4056    0.1456   -0.0986 C.ar      1 <0>        -0.1500
      2 C2          3.7224   -1.0489    0.1295 C.ar      1 <0>        -0.1500
      3 C3          4.0619    1.2931    0.6162 C.ar      1 <0>        -0.1500
      4 C4          2.6955   -1.0959    1.0724 C.ar      1 <0>        -0.1500
      5 C5          3.0350    1.2461    1.5590 C.ar      1 <0>        -0.1500
      6 C6          2.3518    0.0516    1.7871 C.ar      1 <0>        -0.1435
      7 C7         -3.1931   -0.0681    1.3049 C.2       1 <0>         0.7453
      8 C8         -4.3186    0.5733    0.5442 C.3       1 <0>         0.0610
      9 C9          1.2404    0.0015    2.8075 C.3       1 <0>         0.1435
     10 C10        -0.1266    0.3228    2.2155 C.3       1 <0>         0.1052
     11 N1         -2.7507    0.7065    2.4236 N.am      1 <0>        -0.7943
     12 O1         -2.7073   -1.1455    0.9794 O.2       1 <0>        -0.5700
     13 O2         -1.5586   -1.0317    3.9339 O.2       1 <0>        -0.6500
     14 O3         -1.1822    1.4322    4.3268 O.2       1 <0>        -0.6500
     15 S1         -1.4244    0.3201    3.4283 S.o2      1 <0>         1.3328
     16 H1          5.2060    0.1817   -0.8318 H         1 <0>         0.1500
     17 H2          3.9905   -1.9428   -0.4261 H         1 <0>         0.1500
     18 H3          4.5944    2.2230    0.4396 H         1 <0>         0.1500
     19 H4          2.1685   -2.0310    1.2433 H         1 <0>         0.1500
     20 H5          2.7741    2.1451    2.1111 H         1 <0>         0.1500
     21 H6         -3.9137    1.2121   -0.2455 H         1 <0>         0.0000
     22 H7         -4.9444   -0.1990    0.0890 H         1 <0>         0.0000
     23 H8         -4.9200    1.1844    1.2223 H         1 <0>         0.0000
     24 H9          1.4618    0.7283    3.6000 H         1 <0>         0.0000
     25 H10         1.2158   -0.9815    3.2948 H         1 <0>         0.0000
     26 H11        -0.1189    1.3303    1.7873 H         1 <0>         0.0000
     27 H12        -0.4178   -0.3824    1.4311 H         1 <0>         0.0000
     28 H13        -3.2212    1.6025    2.6070 H         1 <0>         0.4200
@<TRIPOS>BOND
     1    1    2 ar
     2    1    3 ar
     3    2    4 ar
     4    3    5 ar
     5    4    6 ar
     6    5    6 ar
     7    6    9 1
     8    7    8 1
     9    7   11 am
    10    7   12 2
    11    9   10 1
    12   10   15 1
    13   11   15 1
    14   13   15 2
    15   14   15 2
    16    1   16 1
    17    2   17 1
    18    3   18 1
    19    4   19 1
    20    5   20 1
    21    8   21 1
    22    8   22 1
    23    8   23 1
    24    9   24 1
    25    9   25 1
    26   10   26 1
    27   10   27 1
    28   11   28 1
