@<TRIPOS>MOLECULE
*****
   27    27     0     0     0
SMALL
USER_CHARGES

@<TRIPOS>ATOM
      1 C1         -3.5515   -3.8897   -3.4991 C.ar      1 <0>        -0.1500
      2 C2         -2.5451   -2.9540   -3.7383 C.ar      1 <0>        -0.1500
      3 C3         -4.4376   -3.7049   -2.4378 C.ar      1 <0>        -0.1500
      4 C4         -2.4248   -1.8335   -2.9163 C.ar      1 <0>        -0.1500
      5 C5         -4.3173   -2.5845   -1.6157 C.ar      1 <0>        -0.1500
      6 C6         -3.3109   -1.6487   -1.8549 C.ar      1 <0>        -0.1435
      7 C7          0.9129    0.4878    1.0567 C.2       1 <0>        -0.3000
      8 C8          0.1561    0.3579    2.1601 C.2       1 <0>        -0.1233
      9 C9         -3.1811   -0.4365   -0.9647 C.3       1 <0>         0.1435
     10 C10        -2.2664   -0.6711    0.2313 C.3       1 <0>         0.1052
     11 N1         -1.1612    0.1539    2.4013 N.2       1 <0>        -0.3401
     12 O1         -1.6193    1.7858    0.4460 O.2       1 <0>        -0.6500
     13 O2         -3.5405    0.9340    1.7483 O.2       1 <0>        -0.6500
     14 O3          0.8518    0.4477    3.3651 O.3       1 <0>        -0.5267
     15 S1         -2.1601    0.7411    1.3117 S.o2      1 <0>         0.7349
     16 H1         -3.6458   -4.7613   -4.1401 H         1 <0>         0.1500
     17 H2         -1.8557   -3.0971   -4.5653 H         1 <0>         0.1500
     18 H3         -5.2220   -4.4326   -2.2519 H         1 <0>         0.1500
     19 H4         -1.6374   -1.1098   -3.1101 H         1 <0>         0.1500
     20 H5         -5.0122   -2.4488   -0.7912 H         1 <0>         0.1500
     21 H6          1.9840    0.6496    1.1335 H         1 <0>         0.1500
     22 H7          0.4995    0.4383    0.0556 H         1 <0>         0.1500
     23 H8         -4.1797   -0.1650   -0.5978 H         1 <0>         0.0000
     24 H9         -2.8258    0.4247   -1.5447 H         1 <0>         0.0000
     25 H10        -2.6584   -1.4887    0.8448 H         1 <0>         0.0000
     26 H11        -1.2449   -0.9246   -0.0681 H         1 <0>         0.0000
     27 H12         1.7830    0.5927    3.1222 H         1 <0>         0.4500
@<TRIPOS>BOND
     1    1    2 ar
     2    1    3 ar
     3    2    4 ar
     4    3    5 ar
     5    4    6 ar
     6    5    6 ar
     7    6    9 1
     8    7    8 2
     9    8   11 1
    10    8   14 1
    11    9   10 1
    12   10   15 1
    13   11   15 1
    14   12   15 2
    15   13   15 2
    16    1   16 1
    17    2   17 1
    18    3   18 1
    19    4   19 1
    20    5   20 1
    21    7   21 1
    22    7   22 1
    23    9   23 1
    24    9   24 1
    25   10   25 1
    26   10   26 1
    27   14   27 1
