@<TRIPOS>MOLECULE
*****
   28    28     0     0     0
SMALL
USER_CHARGES

@<TRIPOS>ATOM
      1 C1         -3.0501    0.6893   -5.4872 C.ar      1 <0>        -0.1500
      2 C2         -1.9155    1.0873   -4.7801 C.ar      1 <0>        -0.1500
      3 C3         -4.1759    0.2344   -4.8006 C.ar      1 <0>        -0.1500
      4 C4         -1.9066    1.0303   -3.3864 C.ar      1 <0>        -0.1500
      5 C5         -4.1670    0.1774   -3.4069 C.ar      1 <0>        -0.1500
      6 C6         -3.0324    0.5753   -2.6998 C.ar      1 <0>        -0.1435
      7 C7         -1.9924   -4.6334    0.3977 C.2       1 <0>        -0.3000
      8 C8         -2.7045   -3.5570    0.7487 C.2       1 <0>         0.2677
      9 C9         -3.0234    0.5131   -1.1915 C.3       1 <0>         0.1435
     10 C10        -2.5245   -0.8225   -0.6535 C.3       1 <0>         0.1052
     11 N1         -1.9612   -2.4902    1.3308 N.pl3     1 <0>        -0.7490
     12 O1         -3.9635   -0.8686    1.5155 O.2       1 <0>        -0.6500
     13 O2         -1.6110    0.0463    1.6306 O.2       1 <0>        -0.6500
     14 O3         -4.0581   -3.4290    0.5625 O.3       1 <0>        -0.5267
     15 S1         -2.5690   -0.9147    1.1193 S.o2      1 <0>         1.3328
     16 H1         -3.0573    0.7350   -6.5723 H         1 <0>         0.1500
     17 H2         -1.0392    1.4425   -5.3145 H         1 <0>         0.1500
     18 H3         -5.0598   -0.0745   -5.3507 H         1 <0>         0.1500
     19 H4         -1.0181    1.3422   -2.8438 H         1 <0>         0.1500
     20 H5         -5.0486   -0.1785   -2.8804 H         1 <0>         0.1500
     21 H6         -2.4750   -5.4907   -0.0606 H         1 <0>         0.1500
     22 H7         -0.9200   -4.6965    0.5523 H         1 <0>         0.1500
     23 H8         -4.0465    0.6797   -0.8297 H         1 <0>         0.0000
     24 H9         -2.4187    1.3317   -0.7809 H         1 <0>         0.0000
     25 H10        -3.1687   -1.6319   -1.0118 H         1 <0>         0.0000
     26 H11        -1.4968   -1.0386   -0.9611 H         1 <0>         0.0000
     27 H12        -0.9485   -2.6353    1.4319 H         1 <0>         0.4200
     28 H13        -4.3820   -4.2441    0.1417 H         1 <0>         0.4500
@<TRIPOS>BOND
     1    1    2 ar
     2    1    3 ar
     3    2    4 ar
     4    3    5 ar
     5    4    6 ar
     6    5    6 ar
     7    6    9 1
     8    7    8 2
     9    8   11 1
    10    8   14 1
    11    9   10 1
    12   10   15 1
    13   11   15 1
    14   12   15 2
    15   13   15 2
    16    1   16 1
    17    2   17 1
    18    3   18 1
    19    4   19 1
    20    5   20 1
    21    7   21 1
    22    7   22 1
    23    9   23 1
    24    9   24 1
    25   10   25 1
    26   10   26 1
    27   11   27 1
    28   14   28 1
