@<TRIPOS>MOLECULE
*****
   27    27     0     0     0
SMALL
USER_CHARGES

@<TRIPOS>ATOM
      1 C1         -0.5181   -4.8046   -1.2294 C.ar      1 <0>        -0.1500
      2 C2         -0.4758   -3.4921   -1.6994 C.ar      1 <0>        -0.1500
      3 C3         -0.9258   -5.0641    0.0791 C.ar      1 <0>        -0.1500
      4 C4         -0.8409   -2.4389   -0.8609 C.ar      1 <0>        -0.1500
      5 C5         -1.2909   -4.0110    0.9176 C.ar      1 <0>        -0.1500
      6 C6         -1.2486   -2.6983    0.4477 C.ar      1 <0>        -0.1435
      7 C7          0.7892   -0.0485    4.9970 C.2       1 <0>         0.2890
      8 C8          2.1541    0.3652    5.4919 C.3       1 <0>         0.0610
      9 C9         -1.6437   -1.5590    1.3558 C.3       1 <0>         0.1435
     10 C10        -0.4711   -0.9963    2.1501 C.3       1 <0>         0.1052
     11 N1          0.4710    0.6422    3.8993 N.2       1 <0>        -0.3201
     12 O1          0.1397   -0.9080    5.5899 O.2       1 <0>        -0.5700
     13 O2         -1.9073   -0.3380    4.1553 O.2       1 <0>        -0.6500
     14 O3         -1.5018    1.3283    2.3759 O.2       1 <0>        -0.6500
     15 S1         -0.9493    0.3087    3.2632 S.o2      1 <0>         0.7349
     16 H1         -0.2350   -5.6247   -1.8829 H         1 <0>         0.1500
     17 H2         -0.1594   -3.2899   -2.7186 H         1 <0>         0.1500
     18 H3         -0.9599   -6.0860    0.4450 H         1 <0>         0.1500
     19 H4         -0.8047   -1.4193   -1.2356 H         1 <0>         0.1500
     20 H5         -1.6071   -4.2226    1.9357 H         1 <0>         0.1500
     21 H6          2.0462    1.1960    6.1966 H         1 <0>         0.0000
     22 H7          2.7774    0.7041    4.6586 H         1 <0>         0.0000
     23 H8          2.6402   -0.4640    6.0153 H         1 <0>         0.0000
     24 H9         -2.4050   -1.9216    2.0589 H         1 <0>         0.0000
     25 H10        -2.1216   -0.7591    0.7761 H         1 <0>         0.0000
     26 H11        -0.0362   -1.7809    2.7775 H         1 <0>         0.0000
     27 H12         0.3163   -0.5958    1.5044 H         1 <0>         0.0000
@<TRIPOS>BOND
     1    1    2 ar
     2    1    3 ar
     3    2    4 ar
     4    3    5 ar
     5    4    6 ar
     6    5    6 ar
     7    6    9 1
     8    7    8 1
     9    7   11 1
    10    7   12 2
    11    9   10 1
    12   10   15 1
    13   11   15 1
    14   13   15 2
    15   14   15 2
    16    1   16 1
    17    2   17 1
    18    3   18 1
    19    4   19 1
    20    5   20 1
    21    8   21 1
    22    8   22 1
    23    8   23 1
    24    9   24 1
    25    9   25 1
    26   10   26 1
    27   10   27 1
