@<TRIPOS>MOLECULE
*****
   34    35     0     0     0
SMALL
USER_CHARGES

@<TRIPOS>ATOM
      1 C1         -1.1276   -5.3962   -5.1677 C.ar      1 <0>        -0.1500
      2 C2         -0.4256   -4.5643   -6.0398 C.ar      1 <0>        -0.1500
      3 C3         -1.5434   -4.9138   -3.9267 C.ar      1 <0>        -0.1500
      4 C4         -0.1392   -3.2499   -5.6709 C.ar      1 <0>        -0.1500
      5 C5         -1.2570   -3.5994   -3.5577 C.ar      1 <0>        -0.1500
      6 C6         -0.5549   -2.7675   -4.4298 C.ar      1 <0>        -0.1435
      7 C7          2.4493    1.4481    0.2112 C.3       1 <0>         0.2579
      8 C8          4.4024    0.8198    0.0135 C.3       1 <0>         0.2579
      9 C9          3.3598    1.2843   -1.0173 C.3       1 <0>         0.3070
     10 C10         3.7029    2.5877   -1.7234 C.3       1 <0>         0.0000
     11 C11        -0.2451   -1.3452   -4.0298 C.3       1 <0>         0.1435
     12 C12         1.0869   -1.2078   -3.3023 C.3       1 <0>         0.1052
     13 N1          2.9288    0.2621   -2.0315 N.pl3     1 <0>        -0.8650
     14 O1          1.5535    1.2799   -3.9686 O.2       1 <0>        -0.6500
     15 O2          0.4594    0.7927   -1.7500 O.2       1 <0>        -0.6500
     16 O3          3.5667    1.2569    1.1128 O.3       1 <0>        -0.5158
     17 S1          1.4232    0.4587   -2.7810 S.o2      1 <0>         1.3328
     18 H1         -1.3517   -6.4192   -5.4557 H         1 <0>         0.1500
     19 H2         -0.1027   -4.9394   -7.0066 H         1 <0>         0.1500
     20 H3         -2.0910   -5.5609   -3.2479 H         1 <0>         0.1500
     21 H4          0.4085   -2.6089   -6.3567 H         1 <0>         0.1500
     22 H5         -1.5848   -3.2323   -2.5888 H         1 <0>         0.1500
     23 H6          1.9874    2.4311    0.3424 H         1 <0>         0.0000
     24 H7          1.6923    0.6708    0.3568 H         1 <0>         0.0000
     25 H8          4.5816   -0.2594    0.0632 H         1 <0>         0.0000
     26 H9          5.3615    1.3461    0.0003 H         1 <0>         0.0000
     27 H10         4.3485    2.3912   -2.5803 H         1 <0>         0.0000
     28 H11         4.2216    3.2596   -1.0386 H         1 <0>         0.0000
     29 H12         2.7921    3.0754   -2.0732 H         1 <0>         0.0000
     30 H13        -1.0463   -0.9861   -3.3706 H         1 <0>         0.0000
     31 H14        -0.2600   -0.6908   -4.9106 H         1 <0>         0.0000
     32 H15         1.0757   -1.8109   -2.3888 H         1 <0>         0.0000
     33 H16         1.9331   -1.5295   -3.9170 H         1 <0>         0.0000
     34 H17         3.7074   -0.0909   -2.5820 H         1 <0>         0.4200
@<TRIPOS>BOND
     1    1    2 ar
     2    1    3 ar
     3    2    4 ar
     4    3    5 ar
     5    4    6 ar
     6    5    6 ar
     7    6   11 1
     8    7    9 1
     9    7   16 1
    10    8    9 1
    11    8   16 1
    12    9   10 1
    13    9   13 1
    14   11   12 1
    15   12   17 1
    16   13   17 1
    17   14   17 2
    18   15   17 2
    19    1   18 1
    20    2   19 1
    21    3   20 1
    22    4   21 1
    23    5   22 1
    24    7   23 1
    25    7   24 1
    26    8   25 1
    27    8   26 1
    28   10   27 1
    29   10   28 1
    30   10   29 1
    31   11   30 1
    32   11   31 1
    33   12   32 1
    34   12   33 1
    35   13   34 1
