@<TRIPOS>MOLECULE
*****
   33    34     0     0     0
SMALL
USER_CHARGES

@<TRIPOS>ATOM
      1 C1          2.4545   -6.1247   -6.0179 C.ar      1 <0>        -0.1500
      2 C2          2.4889   -4.8806   -6.6477 C.ar      1 <0>        -0.1500
      3 C3          1.8848   -6.2494   -4.7507 C.ar      1 <0>        -0.1500
      4 C4          1.9538   -3.7612   -6.0103 C.ar      1 <0>        -0.1500
      5 C5          1.3497   -5.1301   -4.1134 C.ar      1 <0>        -0.1500
      6 C6          1.3841   -3.8859   -4.7431 C.ar      1 <0>        -0.1435
      7 C7          2.0875    0.1435    0.4346 C.3       1 <0>         0.2579
      8 C8          3.8699    1.0277   -0.1227 C.3       1 <0>         0.2579
      9 C9          3.0446   -0.1110   -0.7385 C.3       1 <0>        -0.1440
     10 C10         3.7065   -1.4722   -0.8032 C.3       1 <0>         0.0000
     11 C11         0.8050   -2.6748   -4.0526 C.3       1 <0>         0.1435
     12 C12         1.8236   -1.9348   -3.1941 C.3       1 <0>         0.1052
     13 N1          2.4595    0.2720   -2.0227 N.2       1 <0>        -0.3961
     14 O1          0.4674   -1.1454   -1.1800 O.2       1 <0>        -0.6500
     15 O2          0.2351    0.0598   -3.3246 O.2       1 <0>        -0.6500
     16 O3          3.0442    1.0294    1.0694 O.3       1 <0>        -0.5158
     17 S1          1.1248   -0.5404   -2.3347 S.o2      1 <0>         0.7349
     18 H1          2.8701   -6.9964   -6.5149 H         1 <0>         0.1500
     19 H2          2.9315   -4.7834   -7.6347 H         1 <0>         0.1500
     20 H3          1.8569   -7.2181   -4.2606 H         1 <0>         0.1500
     21 H4          1.9852   -2.7958   -6.5085 H         1 <0>         0.1500
     22 H5          0.9080   -5.2367   -3.1261 H         1 <0>         0.1500
     23 H6          1.1535    0.6729    0.2163 H         1 <0>         0.0000
     24 H7          1.8673   -0.7227    1.0665 H         1 <0>         0.0000
     25 H8          4.9111    0.7867    0.1145 H         1 <0>         0.0000
     26 H9          3.8333    2.0021   -0.6223 H         1 <0>         0.0000
     27 H10         4.3619   -1.5367   -1.6756 H         1 <0>         0.0000
     28 H11         2.9524   -2.2600   -0.8772 H         1 <0>         0.0000
     29 H12         4.3053   -1.6483    0.0941 H         1 <0>         0.0000
     30 H13        -0.0250   -3.0021   -3.4128 H         1 <0>         0.0000
     31 H14         0.3684   -1.9894   -4.7901 H         1 <0>         0.0000
     32 H15         2.2102   -2.6023   -2.4172 H         1 <0>         0.0000
     33 H16         2.6695   -1.5612   -3.7791 H         1 <0>         0.0000
@<TRIPOS>BOND
     1    1    2 ar
     2    1    3 ar
     3    2    4 ar
     4    3    5 ar
     5    4    6 ar
     6    5    6 ar
     7    6   11 1
     8    7    9 1
     9    7   16 1
    10    8    9 1
    11    8   16 1
    12    9   10 1
    13    9   13 1
    14   11   12 1
    15   12   17 1
    16   13   17 1
    17   14   17 2
    18   15   17 2
    19    1   18 1
    20    2   19 1
    21    3   20 1
    22    4   21 1
    23    5   22 1
    24    7   23 1
    25    7   24 1
    26    8   25 1
    27    8   26 1
    28   10   27 1
    29   10   28 1
    30   10   29 1
    31   11   30 1
    32   11   31 1
    33   12   32 1
    34   12   33 1
