@<TRIPOS>MOLECULE
*****
   34    35     0     0     0
SMALL
USER_CHARGES

@<TRIPOS>ATOM
      1 C1         -3.7605   -1.4079   -5.8492 C.ar      1 <0>        -0.1500
      2 C2         -2.3980   -1.6367   -5.6577 C.ar      1 <0>        -0.1500
      3 C3         -4.4420   -0.5188   -5.0180 C.ar      1 <0>        -0.1500
      4 C4         -1.7169   -0.9767   -4.6349 C.ar      1 <0>        -0.1500
      5 C5         -3.7610    0.1412   -3.9952 C.ar      1 <0>        -0.1500
      6 C6         -2.3984   -0.0877   -3.8036 C.ar      1 <0>        -0.1435
      7 C7         -3.4629    0.4892    1.1832 C.2       1 <0>        -0.3000
      8 C8         -2.7853    1.5754    0.7767 C.2       1 <0>        -0.1233
      9 C9          0.5687    0.8321   -0.5841 C.3       1 <0>         0.0990
     10 C10        -0.5778   -0.3241    0.9614 C.3       1 <0>         0.0990
     11 C11        -0.9280    0.5325   -0.2881 C.3       1 <0>        -0.1440
     12 C12        -1.6629    0.6260   -2.6976 C.3       1 <0>         0.1435
     13 C13        -1.6945   -0.1764   -1.3958 C.3       1 <0>         0.0000
     14 N1         -1.6294    1.7625    0.1037 N.2       1 <0>        -0.6560
     15 O1          1.1388   -1.7766   -0.4818 O.2       1 <0>        -0.6500
     16 O2          2.0609   -0.2578    1.3382 O.2       1 <0>        -0.6500
     17 O3         -3.3632    2.8008    1.0968 O.3       1 <0>        -0.5267
     18 S1          1.0612   -0.5922    0.3465 S.o2      1 <0>         1.1020
     19 H1         -4.2904   -1.9209   -6.6465 H         1 <0>         0.1500
     20 H2         -1.8669   -2.3281   -6.3055 H         1 <0>         0.1500
     21 H3         -5.5026   -0.3396   -5.1676 H         1 <0>         0.1500
     22 H4         -0.6554   -1.1613   -4.4929 H         1 <0>         0.1500
     23 H5         -4.3002    0.8320   -3.3524 H         1 <0>         0.1500
     24 H6         -4.3984    0.5862    1.7254 H         1 <0>         0.1500
     25 H7         -3.1088   -0.5176    0.9896 H         1 <0>         0.1500
     26 H8          0.8649    0.7802   -1.6362 H         1 <0>         0.0000
     27 H9          0.9746    1.7526   -0.1495 H         1 <0>         0.0000
     28 H10        -0.5626    0.2031    1.9220 H         1 <0>         0.0000
     29 H11        -1.1501   -1.2494    1.0774 H         1 <0>         0.0000
     30 H12        -0.6228    0.8051   -2.9996 H         1 <0>         0.0000
     31 H13        -2.1076    1.6165   -2.5353 H         1 <0>         0.0000
     32 H14        -2.7302   -0.3308   -1.0711 H         1 <0>         0.0000
     33 H15        -1.2588   -1.1700   -1.5523 H         1 <0>         0.0000
     34 H16        -4.1837    2.5891    1.5755 H         1 <0>         0.4500
@<TRIPOS>BOND
     1    1    2 ar
     2    1    3 ar
     3    2    4 ar
     4    3    5 ar
     5    4    6 ar
     6    5    6 ar
     7    6   12 1
     8    7    8 2
     9    8   14 1
    10    8   17 1
    11    9   11 1
    12    9   18 1
    13   10   11 1
    14   10   18 1
    15   11   13 1
    16   11   14 1
    17   12   13 1
    18   15   18 2
    19   16   18 2
    20    1   19 1
    21    2   20 1
    22    3   21 1
    23    4   22 1
    24    5   23 1
    25    7   24 1
    26    7   25 1
    27    9   26 1
    28    9   27 1
    29   10   28 1
    30   10   29 1
    31   12   30 1
    32   12   31 1
    33   13   32 1
    34   13   33 1
    35   17   34 1
