@<TRIPOS>MOLECULE
*****
   35    36     0     0     0
SMALL
USER_CHARGES

@<TRIPOS>ATOM
      1 C1          4.6481    0.0771   -5.8857 C.ar      1 <0>        -0.1500
      2 C2          3.7115   -0.9565   -5.8859 C.ar      1 <0>        -0.1500
      3 C3          4.8739    0.8136   -4.7228 C.ar      1 <0>        -0.1500
      4 C4          3.0006   -1.2536   -4.7231 C.ar      1 <0>        -0.1500
      5 C5          4.1630    0.5164   -3.5601 C.ar      1 <0>        -0.1500
      6 C6          3.2264   -0.5171   -3.5602 C.ar      1 <0>        -0.1435
      7 C7         -1.4323   -3.5733   -2.0232 C.2       1 <0>        -0.3000
      8 C8         -1.0953   -2.2772   -1.9283 C.2       1 <0>         0.1767
      9 C9          1.1143   -0.0648    0.3626 C.3       1 <0>         0.0990
     10 C10        -0.7614    0.6366   -0.6263 C.3       1 <0>         0.0990
     11 C11         0.3629   -0.3887   -0.9641 C.3       1 <0>         0.2450
     12 C12         2.4580   -0.8376   -2.3029 C.3       1 <0>         0.1435
     13 C13         1.1548   -0.0377   -2.2176 C.3       1 <0>         0.0000
     14 N1         -0.1092   -1.8236   -1.0872 N.pl3     1 <0>        -0.7450
     15 O1         -0.2393    1.7867    1.7215 O.2       1 <0>        -0.6500
     16 O2         -1.1263   -0.5984    1.7125 O.2       1 <0>        -0.6500
     17 O3         -1.7555   -1.3334   -2.7025 O.3       1 <0>        -0.5267
     18 S1         -0.3958    0.4900    1.0985 S.o2      1 <0>         1.1020
     19 H1          5.2025    0.3074   -6.7908 H         1 <0>         0.1500
     20 H2          3.5363   -1.5307   -6.7909 H         1 <0>         0.1500
     21 H3          5.6038    1.6176   -4.7221 H         1 <0>         0.1500
     22 H4          2.2726   -2.0606   -4.7325 H         1 <0>         0.1500
     23 H5          4.3455    1.0956   -2.6587 H         1 <0>         0.1500
     24 H6         -2.2165   -3.9022   -2.6974 H         1 <0>         0.1500
     25 H7         -0.9341   -4.3334   -1.4306 H         1 <0>         0.1500
     26 H8          1.5687   -0.9138    0.8818 H         1 <0>         0.0000
     27 H9          1.8529    0.7409    0.2907 H         1 <0>         0.0000
     28 H10        -0.5862    1.6530   -0.9952 H         1 <0>         0.0000
     29 H11        -1.7820    0.3392   -0.8846 H         1 <0>         0.0000
     30 H12         2.2363   -1.9122   -2.2679 H         1 <0>         0.0000
     31 H13         3.0806   -0.6265   -1.4238 H         1 <0>         0.0000
     32 H14         1.3745    1.0382   -2.2183 H         1 <0>         0.0000
     33 H15         0.5363   -0.2323   -3.1037 H         1 <0>         0.0000
     34 H16         0.3699   -2.5146   -0.5247 H         1 <0>         0.4000
     35 H17        -2.4209   -1.7909   -3.2448 H         1 <0>         0.4500
@<TRIPOS>BOND
     1    1    2 ar
     2    1    3 ar
     3    2    4 ar
     4    3    5 ar
     5    4    6 ar
     6    5    6 ar
     7    6   12 1
     8    7    8 2
     9    8   14 1
    10    8   17 1
    11    9   11 1
    12    9   18 1
    13   10   11 1
    14   10   18 1
    15   11   13 1
    16   11   14 1
    17   12   13 1
    18   15   18 2
    19   16   18 2
    20    1   19 1
    21    2   20 1
    22    3   21 1
    23    4   22 1
    24    5   23 1
    25    7   24 1
    26    7   25 1
    27    9   26 1
    28    9   27 1
    29   10   28 1
    30   10   29 1
    31   12   30 1
    32   12   31 1
    33   13   32 1
    34   13   33 1
    35   14   34 1
    36   17   35 1
