@<TRIPOS>MOLECULE
*****
   34    35     0     0     0
SMALL
USER_CHARGES

@<TRIPOS>ATOM
      1 C1         -5.3486   -2.3114   -4.1720 C.ar      1 <0>        -0.1500
      2 C2         -5.2653   -0.9196   -4.1323 C.ar      1 <0>        -0.1500
      3 C3         -4.7225   -3.0759   -3.1875 C.ar      1 <0>        -0.1500
      4 C4         -4.5558   -0.2923   -3.1082 C.ar      1 <0>        -0.1500
      5 C5         -4.0130   -2.4487   -2.1634 C.ar      1 <0>        -0.1500
      6 C6         -3.9296   -1.0569   -2.1237 C.ar      1 <0>        -0.1435
      7 C7         -1.5995    2.7081   -0.8352 C.2       1 <0>         0.2890
      8 C8          0.5687    0.8321   -0.5841 C.3       1 <0>         0.0990
      9 C9         -0.5778   -0.3241    0.9614 C.3       1 <0>         0.0990
     10 C10        -0.9280    0.5325   -0.2881 C.3       1 <0>        -0.1440
     11 C11        -2.3384    3.9349   -0.3589 C.3       1 <0>         0.0610
     12 C12        -3.1623   -0.3795   -1.0165 C.3       1 <0>         0.1435
     13 C13        -1.6945   -0.1764   -1.3958 C.3       1 <0>         0.0000
     14 N1         -1.6294    1.7625    0.1037 N.2       1 <0>        -0.6360
     15 O1         -1.0760    2.6772   -1.9469 O.2       1 <0>        -0.5700
     16 O2          1.1388   -1.7766   -0.4818 O.2       1 <0>        -0.6500
     17 O3          2.0609   -0.2578    1.3382 O.2       1 <0>        -0.6500
     18 S1          1.0612   -0.5922    0.3465 S.o2      1 <0>         1.1020
     19 H1         -5.9023   -2.7996   -4.9687 H         1 <0>         0.1500
     20 H2         -5.7537   -0.3241   -4.8981 H         1 <0>         0.1500
     21 H3         -4.7881   -4.1595   -3.2175 H         1 <0>         0.1500
     22 H4         -4.4960    0.7926   -3.0854 H         1 <0>         0.1500
     23 H5         -3.5283   -3.0525   -1.4008 H         1 <0>         0.1500
     24 H6          0.8644    0.7804   -1.6363 H         1 <0>         0.0000
     25 H7          0.9747    1.7526   -0.1493 H         1 <0>         0.0000
     26 H8         -0.5628    0.2030    1.9220 H         1 <0>         0.0000
     27 H9         -1.1497   -1.2497    1.0770 H         1 <0>         0.0000
     28 H10        -1.6387    4.6001    0.1573 H         1 <0>         0.0000
     29 H11        -2.7639    4.4800   -1.2073 H         1 <0>         0.0000
     30 H12        -3.1278    3.6573    0.3466 H         1 <0>         0.0000
     31 H13        -3.6243    0.5888   -0.7840 H         1 <0>         0.0000
     32 H14        -3.2302   -0.9774   -0.0984 H         1 <0>         0.0000
     33 H15        -1.2183   -1.1429   -1.5977 H         1 <0>         0.0000
     34 H16        -1.6191    0.4138   -2.3165 H         1 <0>         0.0000
@<TRIPOS>BOND
     1    1    2 ar
     2    1    3 ar
     3    2    4 ar
     4    3    5 ar
     5    4    6 ar
     6    5    6 ar
     7    6   12 1
     8    7   11 1
     9    7   14 1
    10    7   15 2
    11    8   10 1
    12    8   18 1
    13    9   10 1
    14    9   18 1
    15   10   13 1
    16   10   14 1
    17   12   13 1
    18   16   18 2
    19   17   18 2
    20    1   19 1
    21    2   20 1
    22    3   21 1
    23    4   22 1
    24    5   23 1
    25    8   24 1
    26    8   25 1
    27    9   26 1
    28    9   27 1
    29   11   28 1
    30   11   29 1
    31   11   30 1
    32   12   31 1
    33   12   32 1
    34   13   33 1
    35   13   34 1
