@<TRIPOS>MOLECULE
*****
   36    37     0     0     0
SMALL
USER_CHARGES

@<TRIPOS>ATOM
      1 C1          2.5492    0.7369   -7.0240 C.ar      1 <0>        -0.1500
      2 C2          1.7177    1.6731   -6.4094 C.ar      1 <0>        -0.1500
      3 C3          2.6680   -0.5466   -6.4910 C.ar      1 <0>        -0.1500
      4 C4          1.0051    1.3259   -5.2617 C.ar      1 <0>        -0.1500
      5 C5          1.9554   -0.8939   -5.3433 C.ar      1 <0>        -0.1500
      6 C6          1.1239    0.0423   -4.7287 C.ar      1 <0>        -0.1435
      7 C7          0.7043   -2.9166   -1.0652 C.2       1 <0>         0.9490
      8 C8          1.1143   -0.0648    0.3626 C.3       1 <0>         0.0990
      9 C9         -0.7614    0.6366   -0.6263 C.3       1 <0>         0.0990
     10 C10         0.3629   -0.3887   -0.9641 C.3       1 <0>         0.2250
     11 C11         0.1598   -4.3001   -1.1879 C.3       1 <0>         0.0610
     12 C12         0.3540   -0.3337   -3.4879 C.3       1 <0>         0.1435
     13 C13         1.1548   -0.0377   -2.2176 C.3       1 <0>         0.0000
     14 N1         -0.1092   -1.8236   -1.0872 N.am      1 <0>        -0.6550
     15 O1         -0.2393    1.7867    1.7215 O.2       1 <0>        -0.6500
     16 O2         -1.1263   -0.5984    1.7125 O.2       1 <0>        -0.6500
     17 O3          1.9680   -2.7057   -0.9293 O.3       1 <0>        -0.4500
     18 S1         -0.3958    0.4900    1.0985 S.o2      1 <0>         1.1020
     19 H1          3.1030    1.0071   -7.9184 H         1 <0>         0.1500
     20 H2          1.6243    2.6723   -6.8249 H         1 <0>         0.1500
     21 H3          3.3145   -1.2761   -6.9698 H         1 <0>         0.1500
     22 H4          0.3597    2.0619   -4.7895 H         1 <0>         0.1500
     23 H5          2.0542   -1.8962   -4.9350 H         1 <0>         0.1500
     24 H6          1.5651   -0.9168    0.8796 H         1 <0>         0.0000
     25 H7          1.8543    0.7397    0.2938 H         1 <0>         0.0000
     26 H8         -0.5896    1.6537   -0.9947 H         1 <0>         0.0000
     27 H9         -1.7805    0.3345   -0.8842 H         1 <0>         0.0000
     28 H10         0.1251   -4.5850   -2.2431 H         1 <0>         0.0000
     29 H11         0.8158   -5.0030   -0.6674 H         1 <0>         0.0000
     30 H12        -0.8446   -4.3552   -0.7636 H         1 <0>         0.0000
     31 H13        -0.5979    0.2125   -3.4626 H         1 <0>         0.0000
     32 H14         0.0927   -1.3993   -3.5222 H         1 <0>         0.0000
     33 H15         2.0927   -0.6071   -2.2222 H         1 <0>         0.0000
     34 H16         1.4300    1.0239   -2.1841 H         1 <0>         0.0000
     35 H17        -1.1058   -2.0059   -1.1968 H         1 <0>         0.3700
     36 H18         2.4999   -3.5369   -0.9176 H         1 <0>         0.5000
@<TRIPOS>BOND
     1    1    2 ar
     2    1    3 ar
     3    2    4 ar
     4    3    5 ar
     5    4    6 ar
     6    5    6 ar
     7    6   12 1
     8    7   11 1
     9    7   14 am
    10    7   17 2
    11    8   10 1
    12    8   18 1
    13    9   10 1
    14    9   18 1
    15   10   13 1
    16   10   14 1
    17   12   13 1
    18   15   18 2
    19   16   18 2
    20    1   19 1
    21    2   20 1
    22    3   21 1
    23    4   22 1
    24    5   23 1
    25    8   24 1
    26    8   25 1
    27    9   26 1
    28    9   27 1
    29   11   28 1
    30   11   29 1
    31   11   30 1
    32   12   31 1
    33   12   32 1
    34   13   33 1
    35   13   34 1
    36   14   35 1
    37   17   36 1
