@<TRIPOS>MOLECULE
*****
   33    34     0     0     0
SMALL
USER_CHARGES

@<TRIPOS>ATOM
      1 C1         -6.5704   -1.8077   -0.2464 C.ar      1 <0>        -0.1500
      2 C2         -5.6649   -2.6699   -0.8647 C.ar      1 <0>        -0.1500
      3 C3         -6.1736   -0.5191    0.1112 C.ar      1 <0>        -0.1500
      4 C4         -4.3626   -2.2436   -1.1252 C.ar      1 <0>        -0.1500
      5 C5         -4.8713   -0.0928   -0.1494 C.ar      1 <0>        -0.1500
      6 C6         -3.9657   -0.9551   -0.7676 C.ar      1 <0>        -0.1435
      7 C7          0.3092   -0.5809   -1.6138 C.3       1 <0>         0.2579
      8 C8          0.0258    1.1195   -0.4744 C.3       1 <0>         0.2579
      9 C9         -0.1951   -0.3709   -0.1790 C.3       1 <0>        -0.1440
     10 C10        -0.6574   -1.4094    2.9121 C.3       1 <0>         0.1052
     11 C11        -2.5580   -0.4937   -1.0487 C.3       1 <0>         0.1435
     12 C12        -1.6164   -0.8012    0.1203 C.3       1 <0>         0.0000
     13 N1          0.7483   -0.8750    0.8181 N.2       1 <0>        -0.3961
     14 O1          1.6250   -0.2972    3.1814 O.2       1 <0>        -0.6500
     15 O2         -0.2484    1.0254    2.2612 O.2       1 <0>        -0.6500
     16 O3          0.2537    0.8436   -1.8797 O.3       1 <0>        -0.5158
     17 S1          0.5004   -0.2279    2.2528 S.o2      1 <0>         0.7349
     18 H1         -7.5848   -2.1393   -0.0449 H         1 <0>         0.1500
     19 H2         -5.9740   -3.6729   -1.1442 H         1 <0>         0.1500
     20 H3         -6.8787    0.1529    0.5915 H         1 <0>         0.1500
     21 H4         -3.6638   -2.9223   -1.6071 H         1 <0>         0.1500
     22 H5         -4.5710    0.9128    0.1329 H         1 <0>         0.1500
     23 H6          1.3297   -0.9596   -1.7381 H         1 <0>         0.0000
     24 H7         -0.3608   -1.1360   -2.2779 H         1 <0>         0.0000
     25 H8         -0.8453    1.7671   -0.3319 H         1 <0>         0.0000
     26 H9          0.9035    1.5964   -0.0245 H         1 <0>         0.0000
     27 H10        -0.9320   -1.0966    3.9207 H         1 <0>         0.0000
     28 H11        -1.5358   -1.4285    2.2652 H         1 <0>         0.0000
     29 H12        -0.1761   -2.3883    2.9329 H         1 <0>         0.0000
     30 H13        -2.1849   -0.9767   -1.9612 H         1 <0>         0.0000
     31 H14        -2.5549    0.5850   -1.2522 H         1 <0>         0.0000
     32 H15        -1.9683   -0.2913    1.0276 H         1 <0>         0.0000
     33 H16        -1.6327   -1.8774    0.3405 H         1 <0>         0.0000
@<TRIPOS>BOND
     1    1    2 ar
     2    1    3 ar
     3    2    4 ar
     4    3    5 ar
     5    4    6 ar
     6    5    6 ar
     7    6   11 1
     8    7    9 1
     9    7   16 1
    10    8    9 1
    11    8   16 1
    12    9   12 1
    13    9   13 1
    14   10   17 1
    15   11   12 1
    16   13   17 1
    17   14   17 2
    18   15   17 2
    19    1   18 1
    20    2   19 1
    21    3   20 1
    22    4   21 1
    23    5   22 1
    24    7   23 1
    25    7   24 1
    26    8   25 1
    27    8   26 1
    28   10   27 1
    29   10   28 1
    30   10   29 1
    31   11   30 1
    32   11   31 1
    33   12   32 1
    34   12   33 1
