@<TRIPOS>MOLECULE
*****
   34    35     0     0     0
SMALL
USER_CHARGES

@<TRIPOS>ATOM
      1 C1          1.5360   -6.1441   -2.4387 C.ar      1 <0>        -0.1500
      2 C2          1.8633   -5.0576   -3.2498 C.ar      1 <0>        -0.1500
      3 C3          0.6595   -5.9752   -1.3668 C.ar      1 <0>        -0.1500
      4 C4          1.3144   -3.8021   -2.9889 C.ar      1 <0>        -0.1500
      5 C5          0.1105   -4.7197   -1.1059 C.ar      1 <0>        -0.1500
      6 C6          0.4380   -3.6331   -1.9170 C.ar      1 <0>        -0.1435
      7 C7          0.6924    0.6100    0.8362 C.3       1 <0>         0.2579
      8 C8         -1.1871   -0.0923    0.3645 C.3       1 <0>         0.2579
      9 C9          0.1377   -0.0885   -0.4166 C.3       1 <0>         0.3070
     10 C10         1.1312    2.6277   -3.2859 C.3       1 <0>         0.1052
     11 C11        -0.1556   -2.2762   -1.6343 C.3       1 <0>         0.1435
     12 C12         0.7237   -1.4682   -0.6782 C.3       1 <0>         0.0000
     13 N1          0.1561    0.7141   -1.6872 N.pl3     1 <0>        -0.8650
     14 O1          2.2514    0.2672   -3.1329 O.2       1 <0>        -0.6500
     15 O2          2.3824    1.8140   -1.1463 O.2       1 <0>        -0.6500
     16 O3         -0.5160    0.3198    1.5802 O.3       1 <0>        -0.5158
     17 S1          1.6482    1.2634   -2.2694 S.o2      1 <0>         1.3328
     18 H1          1.9624   -7.1219   -2.6428 H         1 <0>         0.1500
     19 H2          2.5449   -5.1892   -4.0851 H         1 <0>         0.1500
     20 H3          0.4035   -6.8211   -0.7358 H         1 <0>         0.1500
     21 H4          1.5754   -2.9612   -3.6261 H         1 <0>         0.1500
     22 H5         -0.5713   -4.5975   -0.2685 H         1 <0>         0.1500
     23 H6          1.5714    0.1493    1.2967 H         1 <0>         0.0000
     24 H7          0.8514    1.6901    0.7548 H         1 <0>         0.0000
     25 H8         -1.9294    0.6515    0.0559 H         1 <0>         0.0000
     26 H9         -1.6754   -1.0643    0.4816 H         1 <0>         0.0000
     27 H10         2.0183    3.0809   -3.7312 H         1 <0>         0.0000
     28 H11         0.4661    2.2461   -4.0620 H         1 <0>         0.0000
     29 H12         0.6092    3.3486   -2.6550 H         1 <0>         0.0000
     30 H13        -0.2864   -1.7256   -2.5749 H         1 <0>         0.0000
     31 H14        -1.1602   -2.3924   -1.2074 H         1 <0>         0.0000
     32 H15         0.8314   -1.9979    0.2758 H         1 <0>         0.0000
     33 H16         1.7317   -1.3556   -1.0945 H         1 <0>         0.0000
     34 H17        -0.5446    0.4010   -2.3543 H         1 <0>         0.4200
@<TRIPOS>BOND
     1    1    2 ar
     2    1    3 ar
     3    2    4 ar
     4    3    5 ar
     5    4    6 ar
     6    5    6 ar
     7    6   11 1
     8    7    9 1
     9    7   16 1
    10    8    9 1
    11    8   16 1
    12    9   12 1
    13    9   13 1
    14   10   17 1
    15   11   12 1
    16   13   17 1
    17   14   17 2
    18   15   17 2
    19    1   18 1
    20    2   19 1
    21    3   20 1
    22    4   21 1
    23    5   22 1
    24    7   23 1
    25    7   24 1
    26    8   25 1
    27    8   26 1
    28   10   27 1
    29   10   28 1
    30   10   29 1
    31   11   30 1
    32   11   31 1
    33   12   32 1
    34   12   33 1
    35   13   34 1
