@<TRIPOS>MOLECULE
*****
   41    43     0     0     0
SMALL
USER_CHARGES

@<TRIPOS>ATOM
      1 C1          1.5360   -6.1441   -2.4387 C.ar      1 <0>        -0.1500
      2 C2          0.4526    5.2288   -4.2205 C.ar      1 <0>        -0.1500
      3 C3          1.8633   -5.0576   -3.2498 C.ar      1 <0>        -0.1500
      4 C4          0.6595   -5.9752   -1.3668 C.ar      1 <0>        -0.1500
      5 C5          0.8395    5.1949   -2.8808 C.ar      1 <0>        -0.1500
      6 C6          0.4253    4.0518   -4.9686 C.ar      1 <0>        -0.1500
      7 C7          1.3144   -3.8021   -2.9889 C.ar      1 <0>        -0.1500
      8 C8          0.1105   -4.7197   -1.1059 C.ar      1 <0>        -0.1500
      9 C9          1.1993    3.9840   -2.2893 C.ar      1 <0>        -0.1500
     10 C10         0.7851    2.8409   -4.3771 C.ar      1 <0>        -0.1500
     11 C11         0.4380   -3.6331   -1.9170 C.ar      1 <0>        -0.1435
     12 C12         1.1721    2.8070   -3.0374 C.ar      1 <0>        -0.0090
     13 C13         0.6924    0.6100    0.8362 C.3       1 <0>         0.2579
     14 C14        -1.1871   -0.0923    0.3645 C.3       1 <0>         0.2579
     15 C15         0.1377   -0.0885   -0.4166 C.3       1 <0>         0.3070
     16 C16        -0.1556   -2.2762   -1.6343 C.3       1 <0>         0.1435
     17 C17         0.7237   -1.4682   -0.6782 C.3       1 <0>         0.0000
     18 N1          0.1561    0.7141   -1.6872 N.pl3     1 <0>        -0.8650
     19 O1          2.1028    0.3872   -3.3355 O.2       1 <0>        -0.6500
     20 O2          2.4877    1.5923   -1.1620 O.2       1 <0>        -0.6500
     21 O3         -0.5160    0.3198    1.5802 O.3       1 <0>        -0.5158
     22 S1          1.6313    1.2731   -2.2882 S.o2      1 <0>         1.4470
     23 H1          1.9624   -7.1219   -2.6428 H         1 <0>         0.1500
     24 H2          0.1729    6.1715   -4.6819 H         1 <0>         0.1500
     25 H3          2.5449   -5.1892   -4.0851 H         1 <0>         0.1500
     26 H4          0.4035   -6.8211   -0.7358 H         1 <0>         0.1500
     27 H5          0.8619    6.1111   -2.2983 H         1 <0>         0.1500
     28 H6          0.1246    4.0787   -6.0118 H         1 <0>         0.1500
     29 H7          1.5754   -2.9612   -3.6261 H         1 <0>         0.1500
     30 H8         -0.5713   -4.5975   -0.2685 H         1 <0>         0.1500
     31 H9          1.5001    3.9689   -1.2451 H         1 <0>         0.1500
     32 H10         0.7614    1.9304   -4.9696 H         1 <0>         0.1500
     33 H11         1.5714    0.1493    1.2967 H         1 <0>         0.0000
     34 H12         0.8514    1.6901    0.7548 H         1 <0>         0.0000
     35 H13        -1.9294    0.6515    0.0559 H         1 <0>         0.0000
     36 H14        -1.6754   -1.0643    0.4816 H         1 <0>         0.0000
     37 H15        -0.2864   -1.7256   -2.5749 H         1 <0>         0.0000
     38 H16        -1.1602   -2.3924   -1.2074 H         1 <0>         0.0000
     39 H17         0.8314   -1.9979    0.2758 H         1 <0>         0.0000
     40 H18         1.7317   -1.3556   -1.0945 H         1 <0>         0.0000
     41 H19        -0.6275    0.5366   -2.3046 H         1 <0>         0.4200
@<TRIPOS>BOND
     1    1    3 ar
     2    1    4 ar
     3    2    5 ar
     4    2    6 ar
     5    3    7 ar
     6    4    8 ar
     7    5    9 ar
     8    6   10 ar
     9    7   11 ar
    10    8   11 ar
    11    9   12 ar
    12   10   12 ar
    13   11   16 1
    14   12   22 1
    15   13   15 1
    16   13   21 1
    17   14   15 1
    18   14   21 1
    19   15   17 1
    20   15   18 1
    21   16   17 1
    22   18   22 1
    23   19   22 2
    24   20   22 2
    25    1   23 1
    26    2   24 1
    27    3   25 1
    28    4   26 1
    29    5   27 1
    30    6   28 1
    31    7   29 1
    32    8   30 1
    33    9   31 1
    34   10   32 1
    35   13   33 1
    36   13   34 1
    37   14   35 1
    38   14   36 1
    39   16   37 1
    40   16   38 1
    41   17   39 1
    42   17   40 1
    43   18   41 1
