@<TRIPOS>MOLECULE
*****
   39    40     0     0     0
SMALL
USER_CHARGES

@<TRIPOS>ATOM
      1 C1          0.6535    3.5223   -4.6815 C.ar      1 <0>        -0.1500
      2 C2          0.7761    4.1663   -3.4504 C.ar      1 <0>        -0.1500
      3 C3          0.2508    2.1878   -4.7336 C.ar      1 <0>        -0.1500
      4 C4          0.4961    3.4758   -2.2712 C.ar      1 <0>        -0.1500
      5 C5         -0.0293    1.4973   -3.5544 C.ar      1 <0>        -0.1500
      6 C6          0.0934    2.1413   -2.3232 C.ar      1 <0>        -0.1435
      7 C7          1.7806   -1.0868    1.1956 C.3       1 <0>         0.2579
      8 C8         -0.2047   -1.2334    0.6611 C.3       1 <0>         0.2579
      9 C9          0.7371   -0.0262    0.8062 C.3       1 <0>         0.3070
     10 C10        -0.3400    3.1998    3.9301 C.3       1 <0>         0.3557
     11 C11         0.8900    1.3919    5.0486 C.3       1 <0>         0.3557
     12 C12        -0.2093    1.3942   -1.0489 C.3       1 <0>         0.1435
     13 C13         1.0381    0.7033   -0.4947 C.3       1 <0>         0.0000
     14 N1          0.3830    0.9542    1.8508 N.pl3     1 <0>        -0.8650
     15 N2          0.9424    2.4460    3.9992 N.pl3     1 <0>        -0.8494
     16 O1          2.7845    1.1127    2.7567 O.2       1 <0>        -0.6500
     17 O2          1.7664    3.1150    1.6307 O.2       1 <0>        -0.6500
     18 O3          0.9027   -2.1600    0.7768 O.3       1 <0>        -0.5158
     19 S1          1.6297    1.9496    2.4859 S.o2      1 <0>         1.5760
     20 H1          0.8703    4.0605   -5.5997 H         1 <0>         0.1500
     21 H2          1.0887    5.2056   -3.4097 H         1 <0>         0.1500
     22 H3          0.1541    1.6865   -5.6921 H         1 <0>         0.1500
     23 H4          0.5946    3.9856   -1.3164 H         1 <0>         0.1500
     24 H5         -0.3423    0.4578   -3.6047 H         1 <0>         0.1500
     25 H6          2.7128   -1.0801    0.6230 H         1 <0>         0.0000
     26 H7          2.0124   -1.1653    2.2626 H         1 <0>         0.0000
     27 H8         -0.9251   -1.3813    1.4726 H         1 <0>         0.0000
     28 H9         -0.7167   -1.3330   -0.3005 H         1 <0>         0.0000
     29 H10        -0.2715    3.9700    3.1478 H         1 <0>         0.0000
     30 H11        -1.1601    2.5068    3.6914 H         1 <0>         0.0000
     31 H12        -0.5359    3.6794    4.9005 H         1 <0>         0.0000
     32 H13         1.8487    0.8532    5.0762 H         1 <0>         0.0000
     33 H14         0.7032    1.8580    6.0273 H         1 <0>         0.0000
     34 H15         0.0790    0.6853    4.8183 H         1 <0>         0.0000
     35 H16        -0.6145    2.0873   -0.3002 H         1 <0>         0.0000
     36 H17        -0.9957    0.6507   -1.2326 H         1 <0>         0.0000
     37 H18         1.4290   -0.0146   -1.2254 H         1 <0>         0.0000
     38 H19         1.8311    1.4393   -0.3170 H         1 <0>         0.0000
     39 H20        -0.5293    1.4043    1.7008 H         1 <0>         0.4200
@<TRIPOS>BOND
     1    1    2 ar
     2    1    3 ar
     3    2    4 ar
     4    3    5 ar
     5    4    6 ar
     6    5    6 ar
     7    6   12 1
     8    7    9 1
     9    7   18 1
    10    8    9 1
    11    8   18 1
    12    9   13 1
    13    9   14 1
    14   10   15 1
    15   11   15 1
    16   12   13 1
    17   14   19 1
    18   15   19 1
    19   16   19 2
    20   17   19 2
    21    1   20 1
    22    2   21 1
    23    3   22 1
    24    4   23 1
    25    5   24 1
    26    7   25 1
    27    7   26 1
    28    8   27 1
    29    8   28 1
    30   10   29 1
    31   10   30 1
    32   10   31 1
    33   11   32 1
    34   11   33 1
    35   11   34 1
    36   12   35 1
    37   12   36 1
    38   13   37 1
    39   13   38 1
    40   14   39 1
