@<TRIPOS>MOLECULE
*****
   34    35     0     0     0
SMALL
USER_CHARGES

@<TRIPOS>ATOM
      1 C1          3.3467    3.5937   -4.8885 C.ar      1 <0>        -0.1500
      2 C2          3.2016    4.0981   -3.5962 C.ar      1 <0>        -0.1500
      3 C3          2.5556    2.5264   -5.3136 C.ar      1 <0>        -0.1500
      4 C4          2.2653    3.5351   -2.7289 C.ar      1 <0>        -0.1500
      5 C5          1.6194    1.9635   -4.4463 C.ar      1 <0>        -0.1500
      6 C6          1.4742    2.4678   -3.1540 C.ar      1 <0>        -0.1435
      7 C7         -0.1715    0.9776    0.8472 C.3       1 <0>         0.2170
      8 C8          0.6184   -1.0778    0.3935 C.3       1 <0>         0.2170
      9 C9          0.0544    0.1189   -0.4390 C.3       1 <0>         0.3070
     10 C10        -2.5145   -1.2710   -3.2988 C.3       1 <0>         0.1052
     11 C11         0.4621    1.8586   -2.2168 C.3       1 <0>         0.1435
     12 C12         1.0728    0.7181   -1.4030 C.3       1 <0>         0.0000
     13 N1         -1.2060   -0.1922   -1.2299 N.pl3     1 <0>        -0.8650
     14 O1         -1.7284   -2.7216   -1.2670 O.2       1 <0>        -0.6500
     15 O2          0.0050   -1.7430   -2.8143 O.2       1 <0>        -0.6500
     16 S1         -0.3680   -0.5446    1.8312 S.3       1 <0>        -0.4340
     17 S2         -1.2525   -1.6346   -2.1000 S.o2      1 <0>         1.3328
     18 H1          4.0748    4.0330   -5.5641 H         1 <0>         0.1500
     19 H2          3.8167    4.9298   -3.2653 H         1 <0>         0.1500
     20 H3          2.6676    2.1342   -6.3201 H         1 <0>         0.1500
     21 H4          2.1592    3.9345   -1.7237 H         1 <0>         0.1500
     22 H5          1.0074    1.1321   -4.7862 H         1 <0>         0.1500
     23 H6          0.6900    1.5795    1.1576 H         1 <0>         0.0000
     24 H7         -1.0508    1.6286    0.8207 H         1 <0>         0.0000
     25 H8          0.3703   -2.0700    0.0042 H         1 <0>         0.0000
     26 H9          1.6981   -1.0437    0.5777 H         1 <0>         0.0000
     27 H10        -2.6437   -2.1454   -3.9387 H         1 <0>         0.0000
     28 H11        -3.4402   -1.0463   -2.7669 H         1 <0>         0.0000
     29 H12        -2.1927   -0.4106   -3.8873 H         1 <0>         0.0000
     30 H13         0.0700    2.6306   -1.5420 H         1 <0>         0.0000
     31 H14        -0.3985    1.4893   -2.7896 H         1 <0>         0.0000
     32 H15         1.4378   -0.0716   -2.0684 H         1 <0>         0.0000
     33 H16         1.9341    1.0775   -0.8299 H         1 <0>         0.0000
     34 H17        -2.0339    0.1353   -0.7522 H         1 <0>         0.4200
@<TRIPOS>BOND
     1    1    2 ar
     2    1    3 ar
     3    2    4 ar
     4    3    5 ar
     5    4    6 ar
     6    5    6 ar
     7    6   11 1
     8    7    9 1
     9    7   16 1
    10    8    9 1
    11    8   16 1
    12    9   12 1
    13    9   13 1
    14   10   17 1
    15   11   12 1
    16   13   17 1
    17   14   17 2
    18   15   17 2
    19    1   18 1
    20    2   19 1
    21    3   20 1
    22    4   21 1
    23    5   22 1
    24    7   23 1
    25    7   24 1
    26    8   25 1
    27    8   26 1
    28   10   27 1
    29   10   28 1
    30   10   29 1
    31   11   30 1
    32   11   31 1
    33   12   32 1
    34   12   33 1
    35   13   34 1
