@<TRIPOS>MOLECULE
*****
   33    34     0     0     0
SMALL
USER_CHARGES

@<TRIPOS>ATOM
      1 C1         -5.5102   -3.9027   -0.8974 C.ar      1 <0>        -0.1500
      2 C2         -4.3284   -4.5566   -0.5492 C.ar      1 <0>        -0.1500
      3 C3         -5.4676   -2.5940   -1.3782 C.ar      1 <0>        -0.1500
      4 C4         -3.1039   -3.9018   -0.6817 C.ar      1 <0>        -0.1500
      5 C5         -4.2431   -1.9392   -1.5107 C.ar      1 <0>        -0.1500
      6 C6         -3.0613   -2.5931   -1.1625 C.ar      1 <0>        -0.1435
      7 C7          1.0866   -1.2072   -0.9517 C.3       1 <0>         0.2170
      8 C8          0.0321    0.7783   -1.1482 C.3       1 <0>         0.2170
      9 C9         -0.0192   -0.4342   -0.1670 C.3       1 <0>        -0.1440
     10 C10        -1.6211    0.1979    2.6321 C.3       1 <0>         0.1052
     11 C11        -1.7380   -1.8846   -1.3058 C.3       1 <0>         0.1435
     12 C12        -1.3690   -1.1307   -0.0284 C.3       1 <0>         0.0000
     13 N1          0.4728   -0.0349    1.1609 N.2       1 <0>        -0.3961
     14 O1          0.2519    1.9210    2.8360 O.2       1 <0>        -0.6500
     15 O2         -1.1677    1.9318    0.8136 O.2       1 <0>        -0.6500
     16 S1          0.6354   -0.3159   -2.4805 S.3       1 <0>        -0.4340
     17 S2         -0.3888    1.1533    1.7721 S.o2      1 <0>         0.7349
     18 H1         -6.4634   -4.4132   -0.7954 H         1 <0>         0.1500
     19 H2         -4.3613   -5.5760   -0.1758 H         1 <0>         0.1500
     20 H3         -6.3874   -2.0849   -1.6504 H         1 <0>         0.1500
     21 H4         -2.1881   -4.4191   -0.4078 H         1 <0>         0.1500
     22 H5         -4.2196   -0.9195   -1.8860 H         1 <0>         0.1500
     23 H6          2.1195   -1.0085   -0.6421 H         1 <0>         0.0000
     24 H7          0.9498   -2.2924   -0.9985 H         1 <0>         0.0000
     25 H8         -0.9335    1.2533   -1.3492 H         1 <0>         0.0000
     26 H9          0.7516    1.5662   -0.8963 H         1 <0>         0.0000
     27 H10        -2.3119    0.8869    3.1207 H         1 <0>         0.0000
     28 H11        -2.1484   -0.4196    1.9034 H         1 <0>         0.0000
     29 H12        -1.1181   -0.4275    3.3711 H         1 <0>         0.0000
     30 H13        -0.9528   -2.6117   -1.5503 H         1 <0>         0.0000
     31 H14        -1.7806   -1.1866   -2.1520 H         1 <0>         0.0000
     32 H15        -2.1322   -0.3806    0.2050 H         1 <0>         0.0000
     33 H16        -1.3264   -1.8196    0.8219 H         1 <0>         0.0000
@<TRIPOS>BOND
     1    1    2 ar
     2    1    3 ar
     3    2    4 ar
     4    3    5 ar
     5    4    6 ar
     6    5    6 ar
     7    6   11 1
     8    7    9 1
     9    7   16 1
    10    8    9 1
    11    8   16 1
    12    9   12 1
    13    9   13 1
    14   10   17 1
    15   11   12 1
    16   13   17 1
    17   14   17 2
    18   15   17 2
    19    1   18 1
    20    2   19 1
    21    3   20 1
    22    4   21 1
    23    5   22 1
    24    7   23 1
    25    7   24 1
    26    8   25 1
    27    8   26 1
    28   10   27 1
    29   10   28 1
    30   10   29 1
    31   11   30 1
    32   11   31 1
    33   12   32 1
    34   12   33 1
