@<TRIPOS>MOLECULE
*****
   40    42     0     0     0
SMALL
USER_CHARGES

@<TRIPOS>ATOM
      1 C1         -5.0464   -4.3893    1.1742 C.ar      1 <0>        -0.1500
      2 C2          2.8675    1.7127   -4.5909 C.ar      1 <0>        -0.1500
      3 C3         -4.5979   -3.4975    2.1484 C.ar      1 <0>        -0.1500
      4 C4         -4.2580   -4.6532    0.0541 C.ar      1 <0>        -0.1500
      5 C5          3.4804    0.4830   -4.3504 C.ar      1 <0>        -0.1500
      6 C6          1.5649    1.9413   -4.1475 C.ar      1 <0>        -0.1500
      7 C7         -3.3610   -2.8694    2.0025 C.ar      1 <0>        -0.1500
      8 C8         -3.0212   -4.0251   -0.0918 C.ar      1 <0>        -0.1500
      9 C9          2.7907   -0.5181   -3.6666 C.ar      1 <0>        -0.1500
     10 C10         0.8751    0.9402   -3.4637 C.ar      1 <0>        -0.1500
     11 C11        -2.5726   -3.1332    0.8824 C.ar      1 <0>        -0.1435
     12 C12         1.4880   -0.2896   -3.2232 C.ar      1 <0>        -0.0090
     13 C13        -0.0213    0.9544   -0.8796 C.3       1 <0>         0.2170
     14 C14         0.5867    0.1594    1.1431 C.3       1 <0>         0.2170
     15 C15        -0.0192   -0.4342   -0.1670 C.3       1 <0>        -0.1440
     16 C16        -1.2355   -2.4544    0.7239 C.3       1 <0>         0.1435
     17 C17        -1.3690   -1.1307   -0.0284 C.3       1 <0>         0.0000
     18 N1          0.9453   -1.3423   -0.8074 N.2       1 <0>        -0.3961
     19 O1          1.1544   -2.8025   -2.9256 O.2       1 <0>        -0.6500
     20 O2         -0.7935   -1.3260   -2.7124 O.2       1 <0>        -0.6500
     21 S1         -0.1224    1.7935    0.7393 S.3       1 <0>        -0.4340
     22 S2          0.5961   -1.5844   -2.3428 S.o2      1 <0>         0.8491
     23 H1         -6.0089   -4.8793    1.2887 H         1 <0>         0.1500
     24 H2          3.4038    2.4925   -5.1239 H         1 <0>         0.1500
     25 H3         -5.2111   -3.2928    3.0211 H         1 <0>         0.1500
     26 H4         -4.6065   -5.3483   -0.7040 H         1 <0>         0.1500
     27 H5          4.4942    0.3043   -4.6964 H         1 <0>         0.1500
     28 H6          1.0878    2.8985   -4.3356 H         1 <0>         0.1500
     29 H7         -3.0197   -2.1759    2.7665 H         1 <0>         0.1500
     30 H8         -2.4138   -4.2367   -0.9678 H         1 <0>         0.1500
     31 H9          3.2772   -1.4728   -3.4853 H         1 <0>         0.1500
     32 H10        -0.1397    1.1286   -3.1240 H         1 <0>         0.1500
     33 H11         0.8933    1.2119   -1.4268 H         1 <0>         0.0000
     34 H12        -0.8743    1.1350   -1.5416 H         1 <0>         0.0000
     35 H13         0.2113   -0.2850    2.0704 H         1 <0>         0.0000
     36 H14         1.6815    0.1802    1.1959 H         1 <0>         0.0000
     37 H15        -0.7894   -2.2794    1.7115 H         1 <0>         0.0000
     38 H16        -0.5432   -3.1187    0.1905 H         1 <0>         0.0000
     39 H17        -1.7841   -1.3007   -1.0277 H         1 <0>         0.0000
     40 H18        -2.0602   -0.4623    0.4960 H         1 <0>         0.0000
@<TRIPOS>BOND
     1    1    3 ar
     2    1    4 ar
     3    2    5 ar
     4    2    6 ar
     5    3    7 ar
     6    4    8 ar
     7    5    9 ar
     8    6   10 ar
     9    7   11 ar
    10    8   11 ar
    11    9   12 ar
    12   10   12 ar
    13   11   16 1
    14   12   22 1
    15   13   15 1
    16   13   21 1
    17   14   15 1
    18   14   21 1
    19   15   17 1
    20   15   18 1
    21   16   17 1
    22   18   22 1
    23   19   22 2
    24   20   22 2
    25    1   23 1
    26    2   24 1
    27    3   25 1
    28    4   26 1
    29    5   27 1
    30    6   28 1
    31    7   29 1
    32    8   30 1
    33    9   31 1
    34   10   32 1
    35   13   33 1
    36   13   34 1
    37   14   35 1
    38   14   36 1
    39   16   37 1
    40   16   38 1
    41   17   39 1
    42   17   40 1
