@<TRIPOS>MOLECULE
*****
   38    39     0     0     0
SMALL
USER_CHARGES

@<TRIPOS>ATOM
      1 C1         -5.0464   -4.3893    1.1742 C.ar      1 <0>        -0.1500
      2 C2         -4.5979   -3.4975    2.1484 C.ar      1 <0>        -0.1500
      3 C3         -4.2580   -4.6532    0.0541 C.ar      1 <0>        -0.1500
      4 C4         -3.3610   -2.8694    2.0025 C.ar      1 <0>        -0.1500
      5 C5         -3.0212   -4.0251   -0.0918 C.ar      1 <0>        -0.1500
      6 C6         -2.5726   -3.1332    0.8824 C.ar      1 <0>        -0.1435
      7 C7         -0.0213    0.9544   -0.8796 C.3       1 <0>         0.2170
      8 C8          0.5867    0.1594    1.1431 C.3       1 <0>         0.2170
      9 C9         -0.0192   -0.4342   -0.1670 C.3       1 <0>        -0.1440
     10 C10         2.9837   -0.2889   -2.9049 C.3       1 <0>         0.3557
     11 C11         1.1503    0.0361   -4.5222 C.3       1 <0>         0.3557
     12 C12        -1.2355   -2.4544    0.7239 C.3       1 <0>         0.1435
     13 C13        -1.3690   -1.1307   -0.0284 C.3       1 <0>         0.0000
     14 N1          0.9453   -1.3423   -0.8074 N.2       1 <0>        -0.3961
     15 N2          1.5106   -0.2905   -3.1159 N.pl3     1 <0>        -0.8494
     16 O1          1.1636   -2.8140   -2.9129 O.2       1 <0>        -0.6500
     17 O2         -0.7889   -1.3303   -2.7151 O.2       1 <0>        -0.6500
     18 S1         -0.1224    1.7935    0.7393 S.3       1 <0>        -0.4340
     19 S2          0.6015   -1.5895   -2.3465 S.o2      1 <0>         0.9781
     20 H1         -6.0089   -4.8793    1.2887 H         1 <0>         0.1500
     21 H2         -5.2111   -3.2928    3.0211 H         1 <0>         0.1500
     22 H3         -4.6065   -5.3483   -0.7040 H         1 <0>         0.1500
     23 H4         -3.0197   -2.1759    2.7665 H         1 <0>         0.1500
     24 H5         -2.4138   -4.2367   -0.9678 H         1 <0>         0.1500
     25 H6          0.8933    1.2119   -1.4268 H         1 <0>         0.0000
     26 H7         -0.8743    1.1350   -1.5416 H         1 <0>         0.0000
     27 H8          0.2113   -0.2850    2.0704 H         1 <0>         0.0000
     28 H9          1.6815    0.1802    1.1959 H         1 <0>         0.0000
     29 H10         3.2046   -0.5344   -1.8556 H         1 <0>         0.0000
     30 H11         3.4489   -1.0382   -3.5623 H         1 <0>         0.0000
     31 H12         3.3867    0.7069   -3.1411 H         1 <0>         0.0000
     32 H13         0.0560    0.0239   -4.6332 H         1 <0>         0.0000
     33 H14         1.5333    1.0355   -4.7761 H         1 <0>         0.0000
     34 H15         1.5955   -0.7095   -5.1973 H         1 <0>         0.0000
     35 H16        -0.7894   -2.2794    1.7115 H         1 <0>         0.0000
     36 H17        -0.5432   -3.1187    0.1905 H         1 <0>         0.0000
     37 H18        -1.7841   -1.3007   -1.0277 H         1 <0>         0.0000
     38 H19        -2.0602   -0.4623    0.4960 H         1 <0>         0.0000
@<TRIPOS>BOND
     1    1    2 ar
     2    1    3 ar
     3    2    4 ar
     4    3    5 ar
     5    4    6 ar
     6    5    6 ar
     7    6   12 1
     8    7    9 1
     9    7   18 1
    10    8    9 1
    11    8   18 1
    12    9   13 1
    13    9   14 1
    14   10   15 1
    15   11   15 1
    16   12   13 1
    17   14   19 1
    18   15   19 1
    19   16   19 2
    20   17   19 2
    21    1   20 1
    22    2   21 1
    23    3   22 1
    24    4   23 1
    25    5   24 1
    26    7   25 1
    27    7   26 1
    28    8   27 1
    29    8   28 1
    30   10   29 1
    31   10   30 1
    32   10   31 1
    33   11   32 1
    34   11   33 1
    35   11   34 1
    36   12   35 1
    37   12   36 1
    38   13   37 1
    39   13   38 1
