@<TRIPOS>MOLECULE
*****
   34    35     0     0     0
SMALL
USER_CHARGES

@<TRIPOS>ATOM
      1 C1         -5.4432   -3.5372   -2.3284 C.ar      1 <0>        -0.1500
      2 C2         -4.8110   -2.6467   -3.1962 C.ar      1 <0>        -0.1500
      3 C3         -5.0618   -3.5941   -0.9879 C.ar      1 <0>        -0.1500
      4 C4         -3.7973   -1.8132   -2.7235 C.ar      1 <0>        -0.1500
      5 C5         -4.0481   -2.7606   -0.5152 C.ar      1 <0>        -0.1500
      6 C6         -3.4159   -1.8702   -1.3830 C.ar      1 <0>        -0.1435
      7 C7         -0.0015    0.8009   -0.8358 C.3       1 <0>         0.1720
      8 C8          0.2061   -0.4708    1.0336 C.3       1 <0>         0.1720
      9 C9          0.1603   -0.7115   -0.5038 C.3       1 <0>        -0.1440
     10 C10         1.1529   -3.7282   -1.3515 C.3       1 <0>         0.1052
     11 C11        -2.3200   -0.9696   -0.8714 C.3       1 <0>         0.1435
     12 C12        -0.9492   -1.6330   -1.0002 C.3       1 <0>         0.0000
     13 N1          1.4629   -1.2045   -0.9767 N.2       1 <0>        -0.3961
     14 O1         -0.0502    2.1589    1.4721 O.2       1 <0>        -0.5000
     15 O2          3.3075   -2.8754   -0.2795 O.2       1 <0>        -0.6500
     16 O3          1.2137   -2.8128    1.0312 O.2       1 <0>        -0.6500
     17 S1         -0.8283    1.0600    0.8107 S.o       1 <0>         0.1560
     18 S2          1.8854   -2.5475   -0.2377 S.o2      1 <0>         0.7349
     19 H1         -6.2334   -4.1851   -2.6964 H         1 <0>         0.1500
     20 H2         -5.1086   -2.6015   -4.2398 H         1 <0>         0.1500
     21 H3         -5.5545   -4.2865   -0.3118 H         1 <0>         0.1500
     22 H4         -3.3102   -1.1227   -3.4069 H         1 <0>         0.1500
     23 H5         -3.7575   -2.8120    0.5308 H         1 <0>         0.1500
     24 H6          0.9236    1.3804   -0.9336 H         1 <0>         0.0000
     25 H7         -0.6431    1.0228   -1.6938 H         1 <0>         0.0000
     26 H8         -0.2734   -1.2456    1.6398 H         1 <0>         0.0000
     27 H9          1.1900   -0.2505    1.4635 H         1 <0>         0.0000
     28 H10         1.3590   -4.7312   -0.9744 H         1 <0>         0.0000
     29 H11         0.0777   -3.5466   -1.3874 H         1 <0>         0.0000
     30 H12         1.5972   -3.5919   -2.3386 H         1 <0>         0.0000
     31 H13        -2.3300   -0.0221   -1.4256 H         1 <0>         0.0000
     32 H14        -2.5123   -0.7106    0.1779 H         1 <0>         0.0000
     33 H15        -0.9206   -2.5637   -0.4236 H         1 <0>         0.0000
     34 H16        -0.7497   -1.8966   -2.0442 H         1 <0>         0.0000
@<TRIPOS>BOND
     1    1    2 ar
     2    1    3 ar
     3    2    4 ar
     4    3    5 ar
     5    4    6 ar
     6    5    6 ar
     7    6   11 1
     8    7    9 1
     9    7   17 1
    10    8    9 1
    11    8   17 1
    12    9   12 1
    13    9   13 1
    14   10   18 1
    15   11   12 1
    16   13   18 1
    17   14   17 2
    18   15   18 2
    19   16   18 2
    20    1   19 1
    21    2   20 1
    22    3   21 1
    23    4   22 1
    24    5   23 1
    25    7   24 1
    26    7   25 1
    27    8   26 1
    28    8   27 1
    29   10   28 1
    30   10   29 1
    31   10   30 1
    32   11   31 1
    33   11   32 1
    34   12   33 1
    35   12   34 1
