@<TRIPOS>MOLECULE
*****
   34    35     0     0     0
SMALL
USER_CHARGES

@<TRIPOS>ATOM
      1 C1          0.9882    1.9856   -6.5299 C.ar      1 <0>        -0.1500
      2 C2          0.5744    2.9413   -5.6021 C.ar      1 <0>        -0.1500
      3 C3          1.0581    0.6417   -6.1629 C.ar      1 <0>        -0.1500
      4 C4          0.2307    2.5532   -4.3071 C.ar      1 <0>        -0.1500
      5 C5          0.7144    0.2535   -4.8680 C.ar      1 <0>        -0.1500
      6 C6          0.3006    1.2093   -3.9401 C.ar      1 <0>        -0.1435
      7 C7         -0.6190    0.9235    0.3219 C.3       1 <0>         0.1720
      8 C8          0.3944   -1.0848    0.0156 C.3       1 <0>         0.1720
      9 C9          0.7602    0.4144   -0.1903 C.3       1 <0>        -0.1440
     10 C10         3.9780    0.8874   -0.6682 C.3       1 <0>         0.1052
     11 C11        -0.0706    0.7890   -2.5403 C.3       1 <0>         0.1435
     12 C12         1.1423    0.8173   -1.6109 C.3       1 <0>         0.0000
     13 N1          1.8297    0.8055    0.7407 N.2       1 <0>        -0.3961
     14 O1         -2.1068   -1.2082    0.9656 O.2       1 <0>        -0.5000
     15 O2          4.0561   -0.1117    1.6801 O.2       1 <0>        -0.6500
     16 O3          2.9245   -1.3725   -0.1187 O.2       1 <0>        -0.6500
     17 S1         -1.4007   -0.6677   -0.2426 S.o       1 <0>         0.1560
     18 S2          3.1287   -0.0922    0.5526 S.o2      1 <0>         0.7349
     19 H1          1.2545    2.2878   -7.5386 H         1 <0>         0.1500
     20 H2          0.5189    3.9877   -5.8879 H         1 <0>         0.1500
     21 H3          1.3792   -0.1028   -6.8854 H         1 <0>         0.1500
     22 H4         -0.0904    3.3048   -3.5907 H         1 <0>         0.1500
     23 H5          0.7720   -0.7958   -4.5909 H         1 <0>         0.1500
     24 H6         -0.7122    1.0733    1.4037 H         1 <0>         0.0000
     25 H7         -1.0052    1.8119   -0.1869 H         1 <0>         0.0000
     26 H8          0.8028   -1.7698   -0.7338 H         1 <0>         0.0000
     27 H9          0.5871   -1.5012    1.0108 H         1 <0>         0.0000
     28 H10         4.9190    0.3923   -0.9132 H         1 <0>         0.0000
     29 H11         3.3433    0.9614   -1.5526 H         1 <0>         0.0000
     30 H12         4.1645    1.8764   -0.2471 H         1 <0>         0.0000
     31 H13        -0.8554    1.4504   -2.1507 H         1 <0>         0.0000
     32 H14        -0.5037   -0.2195   -2.5584 H         1 <0>         0.0000
     33 H15         1.9178    0.1355   -1.9756 H         1 <0>         0.0000
     34 H16         1.5820    1.8200   -1.5881 H         1 <0>         0.0000
@<TRIPOS>BOND
     1    1    2 ar
     2    1    3 ar
     3    2    4 ar
     4    3    5 ar
     5    4    6 ar
     6    5    6 ar
     7    6   11 1
     8    7    9 1
     9    7   17 1
    10    8    9 1
    11    8   17 1
    12    9   12 1
    13    9   13 1
    14   10   18 1
    15   11   12 1
    16   13   18 1
    17   14   17 2
    18   15   18 2
    19   16   18 2
    20    1   19 1
    21    2   20 1
    22    3   21 1
    23    4   22 1
    24    5   23 1
    25    7   24 1
    26    7   25 1
    27    8   26 1
    28    8   27 1
    29   10   28 1
    30   10   29 1
    31   10   30 1
    32   11   31 1
    33   11   32 1
    34   12   33 1
    35   12   34 1
