@<TRIPOS>MOLECULE
*****
   35    36     0     0     0
SMALL
USER_CHARGES

@<TRIPOS>ATOM
      1 C1         -5.7219   -1.4932   -4.1385 C.ar      1 <0>        -0.1500
      2 C2         -4.5224   -1.3398   -4.8335 C.ar      1 <0>        -0.1500
      3 C3         -5.8219   -1.0610   -2.8160 C.ar      1 <0>        -0.1500
      4 C4         -3.4227   -0.7544   -4.2061 C.ar      1 <0>        -0.1500
      5 C5         -4.7223   -0.4756   -2.1886 C.ar      1 <0>        -0.1500
      6 C6         -3.5227   -0.3223   -2.8836 C.ar      1 <0>        -0.1435
      7 C7         -0.6340    0.9279    0.2745 C.3       1 <0>         0.1720
      8 C8          0.4610   -1.0468    0.1719 C.3       1 <0>         0.1720
      9 C9         -0.2566   -0.0987   -0.8371 C.3       1 <0>         0.3070
     10 C10         2.0090    0.2497   -4.2205 C.3       1 <0>         0.1052
     11 C11        -2.3343    0.3105   -2.2046 C.3       1 <0>         0.1435
     12 C12        -1.4708   -0.7377   -1.5033 C.3       1 <0>         0.0000
     13 N1          0.6396    0.4550   -1.9314 N.pl3     1 <0>        -0.8650
     14 O1          0.3818    0.0767    2.5988 O.2       1 <0>        -0.5000
     15 O2          1.0352   -1.8578   -3.0119 O.2       1 <0>        -0.6500
     16 O3          2.9363   -0.5998   -1.9350 O.2       1 <0>        -0.6500
     17 S1          0.8789    0.4236    1.2267 S.o       1 <0>         0.1560
     18 S2          1.7008   -0.6095   -2.6945 S.o2      1 <0>         1.3328
     19 H1         -6.5785   -1.9478   -4.6277 H         1 <0>         0.1500
     20 H2         -4.4446   -1.6753   -5.8636 H         1 <0>         0.1500
     21 H3         -6.7561   -1.1792   -2.2750 H         1 <0>         0.1500
     22 H4         -2.4920   -0.6392   -4.7553 H         1 <0>         0.1500
     23 H5         -4.8094   -0.1420   -1.1579 H         1 <0>         0.1500
     24 H6         -0.6371    1.9746   -0.0429 H         1 <0>         0.0000
     25 H7         -1.5664    0.7215    0.8109 H         1 <0>         0.0000
     26 H8         -0.1845   -1.7703    0.6815 H         1 <0>         0.0000
     27 H9          1.3310   -1.5756   -0.2281 H         1 <0>         0.0000
     28 H10         2.6977   -0.3483   -4.8194 H         1 <0>         0.0000
     29 H11         1.0592    0.3762   -4.7423 H         1 <0>         0.0000
     30 H12         2.4492    1.2201   -3.9864 H         1 <0>         0.0000
     31 H13        -1.7328    0.8565   -2.9430 H         1 <0>         0.0000
     32 H14        -2.6770    1.0585   -1.4780 H         1 <0>         0.0000
     33 H15        -2.0553   -1.2655   -0.7423 H         1 <0>         0.0000
     34 H16        -1.1260   -1.4896   -2.2210 H         1 <0>         0.0000
     35 H17         0.9348    1.4001   -1.7281 H         1 <0>         0.4200
@<TRIPOS>BOND
     1    1    2 ar
     2    1    3 ar
     3    2    4 ar
     4    3    5 ar
     5    4    6 ar
     6    5    6 ar
     7    6   11 1
     8    7    9 1
     9    7   17 1
    10    8    9 1
    11    8   17 1
    12    9   12 1
    13    9   13 1
    14   10   18 1
    15   11   12 1
    16   13   18 1
    17   14   17 2
    18   15   18 2
    19   16   18 2
    20    1   19 1
    21    2   20 1
    22    3   21 1
    23    4   22 1
    24    5   23 1
    25    7   24 1
    26    7   25 1
    27    8   26 1
    28    8   27 1
    29   10   28 1
    30   10   29 1
    31   10   30 1
    32   11   31 1
    33   11   32 1
    34   12   33 1
    35   12   34 1
    36   13   35 1
