@<TRIPOS>MOLECULE
*****
   35    36     0     0     0
SMALL
USER_CHARGES

@<TRIPOS>ATOM
      1 C1         -3.0040   -0.7962   -6.3718 C.ar      1 <0>        -0.1500
      2 C2         -3.5057   -1.3590   -5.1983 C.ar      1 <0>        -0.1500
      3 C3         -1.6792   -0.3630   -6.4267 C.ar      1 <0>        -0.1500
      4 C4         -2.6827   -1.4885   -4.0796 C.ar      1 <0>        -0.1500
      5 C5         -0.8562   -0.4924   -5.3079 C.ar      1 <0>        -0.1500
      6 C6         -1.3579   -1.0551   -4.1344 C.ar      1 <0>        -0.1435
      7 C7          0.2865    1.1050    0.1796 C.3       1 <0>         0.1720
      8 C8         -0.1960   -1.1088    0.2605 C.3       1 <0>         0.1720
      9 C9          0.3466   -0.1049   -0.8030 C.3       1 <0>         0.3070
     10 C10         4.2665    0.2297   -1.8966 C.3       1 <0>         0.1052
     11 C11        -0.4678   -1.1945   -2.9253 C.3       1 <0>         0.1435
     12 C12        -0.5468    0.0447   -2.0382 C.3       1 <0>         0.0000
     13 N1          1.7454   -0.4274   -1.2863 N.pl3     1 <0>        -0.8650
     14 O1         -0.5703    0.2176    2.5511 O.2       1 <0>        -0.5000
     15 O2          2.4376    2.0544   -1.4770 O.2       1 <0>        -0.6500
     16 O3          2.2722    0.6077   -3.5353 O.2       1 <0>        -0.6500
     17 S1         -1.0655    0.2737    1.1363 S.o       1 <0>         0.1560
     18 S2          2.5877    0.7681   -2.1288 S.o2      1 <0>         1.3328
     19 H1         -3.6446   -0.6968   -7.2432 H         1 <0>         0.1500
     20 H2         -4.5368   -1.6975   -5.1558 H         1 <0>         0.1500
     21 H3         -1.2880    0.0742   -7.3405 H         1 <0>         0.1500
     22 H4         -3.0822   -1.9280   -3.1694 H         1 <0>         0.1500
     23 H5          0.1746   -0.1519   -5.3598 H         1 <0>         0.1500
     24 H6          1.1934    1.2641    0.7732 H         1 <0>         0.0000
     25 H7         -0.0024    2.0579   -0.2736 H         1 <0>         0.0000
     26 H8         -0.8615   -1.8845   -0.1295 H         1 <0>         0.0000
     27 H9          0.5718   -1.5884    0.8775 H         1 <0>         0.0000
     28 H10         4.9273    0.9338   -2.4046 H         1 <0>         0.0000
     29 H11         4.4773    0.2115   -0.8263 H         1 <0>         0.0000
     30 H12         4.3701   -0.7687   -2.3241 H         1 <0>         0.0000
     31 H13        -0.7571   -2.0854   -2.3528 H         1 <0>         0.0000
     32 H14         0.5689   -1.3617   -3.2452 H         1 <0>         0.0000
     33 H15        -0.2312    0.9342   -2.5898 H         1 <0>         0.0000
     34 H16        -1.5739    0.2159   -1.7056 H         1 <0>         0.0000
     35 H17         1.8312   -1.3947   -1.5726 H         1 <0>         0.4200
@<TRIPOS>BOND
     1    1    2 ar
     2    1    3 ar
     3    2    4 ar
     4    3    5 ar
     5    4    6 ar
     6    5    6 ar
     7    6   11 1
     8    7    9 1
     9    7   17 1
    10    8    9 1
    11    8   17 1
    12    9   12 1
    13    9   13 1
    14   10   18 1
    15   11   12 1
    16   13   18 1
    17   14   17 2
    18   15   18 2
    19   16   18 2
    20    1   19 1
    21    2   20 1
    22    3   21 1
    23    4   22 1
    24    5   23 1
    25    7   24 1
    26    7   25 1
    27    8   26 1
    28    8   27 1
    29   10   28 1
    30   10   29 1
    31   10   30 1
    32   11   31 1
    33   11   32 1
    34   12   33 1
    35   12   34 1
    36   13   35 1
