@<TRIPOS>MOLECULE
*****
   42    44     0     0     0
SMALL
USER_CHARGES

@<TRIPOS>ATOM
      1 C1         -2.6037    1.6484   -6.3652 C.ar      1 <0>        -0.1500
      2 C2          5.1193   -1.5134   -5.0728 C.ar      1 <0>        -0.1500
      3 C3         -1.4391    0.8828   -6.4215 C.ar      1 <0>        -0.1500
      4 C4         -2.9637    2.2840   -5.1769 C.ar      1 <0>        -0.1500
      5 C5          5.5653   -1.5691   -3.7524 C.ar      1 <0>        -0.1500
      6 C6          3.7565   -1.6116   -5.3534 C.ar      1 <0>        -0.1500
      7 C7         -0.6345    0.7527   -5.2895 C.ar      1 <0>        -0.1500
      8 C8         -2.1592    2.1540   -4.0449 C.ar      1 <0>        -0.1500
      9 C9          4.6485   -1.7232   -2.7125 C.ar      1 <0>        -0.1500
     10 C10         2.8396   -1.7656   -4.3135 C.ar      1 <0>        -0.1500
     11 C11        -0.9946    1.3883   -4.1011 C.ar      1 <0>        -0.1435
     12 C12         3.2856   -1.8214   -2.9930 C.ar      1 <0>        -0.0090
     13 C13         0.2865    1.1050    0.1796 C.3       1 <0>         0.1720
     14 C14        -0.1960   -1.1088    0.2605 C.3       1 <0>         0.1720
     15 C15         0.3466   -0.1049   -0.8030 C.3       1 <0>         0.3070
     16 C16        -0.1254    1.2480   -2.8770 C.3       1 <0>         0.1435
     17 C17        -0.5468    0.0447   -2.0382 C.3       1 <0>         0.0000
     18 N1          1.7454   -0.4274   -1.2863 N.pl3     1 <0>        -0.8650
     19 O1         -0.5703    0.2176    2.5511 O.2       1 <0>        -0.5000
     20 O2          0.9547   -2.6928   -2.2071 O.2       1 <0>        -0.6500
     21 O3          2.8487   -2.5908   -0.5558 O.2       1 <0>        -0.6500
     22 S1         -1.0655    0.2737    1.1363 S.o       1 <0>         0.1560
     23 S2          2.1244   -2.0199   -1.6751 S.o2      1 <0>         1.4470
     24 H1         -3.2293    1.7507   -7.2471 H         1 <0>         0.1500
     25 H2          5.8327   -1.3941   -5.8831 H         1 <0>         0.1500
     26 H3         -1.1580    0.3887   -7.3469 H         1 <0>         0.1500
     27 H4         -3.8698    2.8811   -5.1330 H         1 <0>         0.1500
     28 H5          6.6263   -1.4938   -3.5335 H         1 <0>         0.1500
     29 H6          3.4097   -1.5688   -6.3816 H         1 <0>         0.1500
     30 H7          0.2710    0.1540   -5.3426 H         1 <0>         0.1500
     31 H8         -2.4476    2.6527   -3.1233 H         1 <0>         0.1500
     32 H9          5.0067   -1.7663   -1.6874 H         1 <0>         0.1500
     33 H10         1.7805   -1.8424   -4.5437 H         1 <0>         0.1500
     34 H11         1.1934    1.2641    0.7732 H         1 <0>         0.0000
     35 H12        -0.0024    2.0579   -0.2736 H         1 <0>         0.0000
     36 H13        -0.8615   -1.8845   -0.1295 H         1 <0>         0.0000
     37 H14         0.5718   -1.5884    0.8775 H         1 <0>         0.0000
     38 H15         0.9253    1.1465   -3.1781 H         1 <0>         0.0000
     39 H16        -0.1824    2.1639   -2.2746 H         1 <0>         0.0000
     40 H17        -1.5832    0.1500   -1.7069 H         1 <0>         0.0000
     41 H18        -0.4851   -0.8752   -2.6254 H         1 <0>         0.0000
     42 H19         2.2165    0.3539   -1.7161 H         1 <0>         0.4200
@<TRIPOS>BOND
     1    1    3 ar
     2    1    4 ar
     3    2    5 ar
     4    2    6 ar
     5    3    7 ar
     6    4    8 ar
     7    5    9 ar
     8    6   10 ar
     9    7   11 ar
    10    8   11 ar
    11    9   12 ar
    12   10   12 ar
    13   11   16 1
    14   12   23 1
    15   13   15 1
    16   13   22 1
    17   14   15 1
    18   14   22 1
    19   15   17 1
    20   15   18 1
    21   16   17 1
    22   18   23 1
    23   19   22 2
    24   20   23 2
    25   21   23 2
    26    1   24 1
    27    2   25 1
    28    3   26 1
    29    4   27 1
    30    5   28 1
    31    6   29 1
    32    7   30 1
    33    8   31 1
    34    9   32 1
    35   10   33 1
    36   13   34 1
    37   13   35 1
    38   14   36 1
    39   14   37 1
    40   16   38 1
    41   16   39 1
    42   17   40 1
    43   17   41 1
    44   18   42 1
