@<TRIPOS>MOLECULE
*****
   42    44     0     0     0
SMALL
USER_CHARGES

@<TRIPOS>ATOM
      1 C1         -5.7219   -1.4932   -4.1385 C.ar      1 <0>        -0.1500
      2 C2          1.8442    1.1138   -6.9334 C.ar      1 <0>        -0.1500
      3 C3         -4.5224   -1.3398   -4.8335 C.ar      1 <0>        -0.1500
      4 C4         -5.8219   -1.0610   -2.8160 C.ar      1 <0>        -0.1500
      5 C5          2.7458    1.5659   -5.9700 C.ar      1 <0>        -0.1500
      6 C6          0.8995    0.1421   -6.6032 C.ar      1 <0>        -0.1500
      7 C7         -3.4227   -0.7544   -4.2061 C.ar      1 <0>        -0.1500
      8 C8         -4.7223   -0.4756   -2.1886 C.ar      1 <0>        -0.1500
      9 C9          2.7028    1.0462   -4.6762 C.ar      1 <0>        -0.1500
     10 C10         0.8565   -0.3776   -5.3095 C.ar      1 <0>        -0.1500
     11 C11        -3.5227   -0.3223   -2.8836 C.ar      1 <0>        -0.1435
     12 C12         1.7581    0.0745   -4.3460 C.ar      1 <0>        -0.0090
     13 C13        -0.6340    0.9279    0.2745 C.3       1 <0>         0.1720
     14 C14         0.4610   -1.0468    0.1719 C.3       1 <0>         0.1720
     15 C15        -0.2566   -0.0987   -0.8371 C.3       1 <0>         0.3070
     16 C16        -2.3343    0.3105   -2.2046 C.3       1 <0>         0.1435
     17 C17        -1.4708   -0.7377   -1.5033 C.3       1 <0>         0.0000
     18 N1          0.6396    0.4550   -1.9314 N.pl3     1 <0>        -0.8650
     19 O1          0.3818    0.0767    2.5988 O.2       1 <0>        -0.5000
     20 O2          1.1376   -1.9187   -2.7799 O.2       1 <0>        -0.6500
     21 O3          3.0205   -0.3843   -2.1281 O.2       1 <0>        -0.6500
     22 S1          0.8789    0.4236    1.2267 S.o       1 <0>         0.1560
     23 S2          1.7062   -0.5863   -2.7072 S.o2      1 <0>         1.4470
     24 H1         -6.5785   -1.9478   -4.6277 H         1 <0>         0.1500
     25 H2          1.8775    1.5176   -7.9412 H         1 <0>         0.1500
     26 H3         -4.4446   -1.6753   -5.8636 H         1 <0>         0.1500
     27 H4         -6.7561   -1.1792   -2.2750 H         1 <0>         0.1500
     28 H5          3.4821    2.3217   -6.2269 H         1 <0>         0.1500
     29 H6          0.1981   -0.2101   -7.3538 H         1 <0>         0.1500
     30 H7         -2.4920   -0.6392   -4.7553 H         1 <0>         0.1500
     31 H8         -4.8094   -0.1420   -1.1579 H         1 <0>         0.1500
     32 H9          3.4104    1.4048   -3.9335 H         1 <0>         0.1500
     33 H10         0.1173   -1.1351   -5.0636 H         1 <0>         0.1500
     34 H11        -0.6371    1.9746   -0.0429 H         1 <0>         0.0000
     35 H12        -1.5664    0.7215    0.8109 H         1 <0>         0.0000
     36 H13        -0.1845   -1.7703    0.6815 H         1 <0>         0.0000
     37 H14         1.3310   -1.5756   -0.2281 H         1 <0>         0.0000
     38 H15        -1.7328    0.8565   -2.9430 H         1 <0>         0.0000
     39 H16        -2.6770    1.0585   -1.4780 H         1 <0>         0.0000
     40 H17        -2.0553   -1.2655   -0.7423 H         1 <0>         0.0000
     41 H18        -1.1260   -1.4896   -2.2210 H         1 <0>         0.0000
     42 H19         0.2651    1.2743   -2.3809 H         1 <0>         0.4200
@<TRIPOS>BOND
     1    1    3 ar
     2    1    4 ar
     3    2    5 ar
     4    2    6 ar
     5    3    7 ar
     6    4    8 ar
     7    5    9 ar
     8    6   10 ar
     9    7   11 ar
    10    8   11 ar
    11    9   12 ar
    12   10   12 ar
    13   11   16 1
    14   12   23 1
    15   13   15 1
    16   13   22 1
    17   14   15 1
    18   14   22 1
    19   15   17 1
    20   15   18 1
    21   16   17 1
    22   18   23 1
    23   19   22 2
    24   20   23 2
    25   21   23 2
    26    1   24 1
    27    2   25 1
    28    3   26 1
    29    4   27 1
    30    5   28 1
    31    6   29 1
    32    7   30 1
    33    8   31 1
    34    9   32 1
    35   10   33 1
    36   13   34 1
    37   13   35 1
    38   14   36 1
    39   14   37 1
    40   16   38 1
    41   16   39 1
    42   17   40 1
    43   17   41 1
    44   18   42 1
