@<TRIPOS>MOLECULE
*****
   41    43     0     0     0
SMALL
USER_CHARGES

@<TRIPOS>ATOM
      1 C1          3.5424    1.3015   -6.0370 C.ar      1 <0>        -0.1500
      2 C2         -0.8855    3.3781    4.3961 C.ar      1 <0>        -0.1500
      3 C3          2.8132    0.1373   -5.7953 C.ar      1 <0>        -0.1500
      4 C4          3.9306    2.1150   -4.9724 C.ar      1 <0>        -0.1500
      5 C5          0.4581    3.0937    4.6397 C.ar      1 <0>        -0.1500
      6 C6         -1.3765    3.3607    3.0906 C.ar      1 <0>        -0.1500
      7 C7          2.4720   -0.2134   -4.4890 C.ar      1 <0>        -0.1500
      8 C8          3.5894    1.7644   -3.6662 C.ar      1 <0>        -0.1500
      9 C9          1.3108    2.7920    3.5779 C.ar      1 <0>        -0.1500
     10 C10        -0.5238    3.0590    2.0287 C.ar      1 <0>        -0.1500
     11 C11         2.8601    0.6002   -3.4245 C.ar      1 <0>        -0.1435
     12 C12         0.8199    2.7747    2.2724 C.ar      1 <0>        -0.0090
     13 C13        -0.6190    0.9235    0.3219 C.3       1 <0>         0.1720
     14 C14         0.3944   -1.0848    0.0156 C.3       1 <0>         0.1720
     15 C15         0.7602    0.4144   -0.1903 C.3       1 <0>        -0.1440
     16 C16         2.4914    0.2218   -2.0122 C.3       1 <0>         0.1435
     17 C17         1.1423    0.8173   -1.6109 C.3       1 <0>         0.0000
     18 N1          1.8297    0.8055    0.7407 N.2       1 <0>        -0.3961
     19 O1         -2.1068   -1.2082    0.9656 O.2       1 <0>        -0.5000
     20 O2          3.2079    2.8928    1.3788 O.2       1 <0>        -0.6500
     21 O3          1.3488    3.1586   -0.2002 O.2       1 <0>        -0.6500
     22 S1         -1.4007   -0.6677   -0.2426 S.o       1 <0>         0.1560
     23 S2          1.9226    2.3882    0.9006 S.o2      1 <0>         0.8491
     24 H1          3.8092    1.5737   -7.0540 H         1 <0>         0.1500
     25 H2         -1.5499    3.6137    5.2224 H         1 <0>         0.1500
     26 H3          2.5118   -0.4969   -6.6239 H         1 <0>         0.1500
     27 H4          4.4993    3.0209   -5.1602 H         1 <0>         0.1500
     28 H5          0.8410    3.1081    5.6559 H         1 <0>         0.1500
     29 H6         -2.4225    3.5828    2.9012 H         1 <0>         0.1500
     30 H7          1.9034   -1.1222   -4.3102 H         1 <0>         0.1500
     31 H8          3.8960    2.4043   -2.8431 H         1 <0>         0.1500
     32 H9          2.3561    2.5728    3.7788 H         1 <0>         0.1500
     33 H10        -0.9166    3.0496    1.0156 H         1 <0>         0.1500
     34 H11        -0.7122    1.0733    1.4037 H         1 <0>         0.0000
     35 H12        -1.0052    1.8119   -0.1869 H         1 <0>         0.0000
     36 H13         0.8028   -1.7698   -0.7338 H         1 <0>         0.0000
     37 H14         0.5871   -1.5012    1.0108 H         1 <0>         0.0000
     38 H15         2.4602   -0.8714   -1.9175 H         1 <0>         0.0000
     39 H16         3.2716    0.5652   -1.3205 H         1 <0>         0.0000
     40 H17         1.1748    1.9103   -1.6720 H         1 <0>         0.0000
     41 H18         0.3578    0.4812   -2.2971 H         1 <0>         0.0000
@<TRIPOS>BOND
     1    1    3 ar
     2    1    4 ar
     3    2    5 ar
     4    2    6 ar
     5    3    7 ar
     6    4    8 ar
     7    5    9 ar
     8    6   10 ar
     9    7   11 ar
    10    8   11 ar
    11    9   12 ar
    12   10   12 ar
    13   11   16 1
    14   12   23 1
    15   13   15 1
    16   13   22 1
    17   14   15 1
    18   14   22 1
    19   15   17 1
    20   15   18 1
    21   16   17 1
    22   18   23 1
    23   19   22 2
    24   20   23 2
    25   21   23 2
    26    1   24 1
    27    2   25 1
    28    3   26 1
    29    4   27 1
    30    5   28 1
    31    6   29 1
    32    7   30 1
    33    8   31 1
    34    9   32 1
    35   10   33 1
    36   13   34 1
    37   13   35 1
    38   14   36 1
    39   14   37 1
    40   16   38 1
    41   16   39 1
    42   17   40 1
    43   17   41 1
