@<TRIPOS>MOLECULE
*****
   41    43     0     0     0
SMALL
USER_CHARGES

@<TRIPOS>ATOM
      1 C1         -3.8565   -5.6697   -1.9161 C.ar      1 <0>        -0.1500
      2 C2          3.4905    3.1287   -3.0892 C.ar      1 <0>        -0.1500
      3 C3         -3.9450   -5.0505   -0.6694 C.ar      1 <0>        -0.1500
      4 C4         -2.7435   -5.4483   -2.7273 C.ar      1 <0>        -0.1500
      5 C5          4.3099    2.0088   -2.9482 C.ar      1 <0>        -0.1500
      6 C6          2.1031    2.9851   -3.0661 C.ar      1 <0>        -0.1500
      7 C7         -2.9206   -4.2099   -0.2338 C.ar      1 <0>        -0.1500
      8 C8         -1.7192   -4.6077   -2.2918 C.ar      1 <0>        -0.1500
      9 C9          3.7422    0.7453   -2.7842 C.ar      1 <0>        -0.1500
     10 C10         1.5354    1.7217   -2.9021 C.ar      1 <0>        -0.1500
     11 C11        -1.8077   -3.9885   -1.0450 C.ar      1 <0>        -0.1435
     12 C12         2.3549    0.6017   -2.7612 C.ar      1 <0>        -0.0090
     13 C13        -0.0015    0.8009   -0.8358 C.3       1 <0>         0.1720
     14 C14         0.2061   -0.4708    1.0336 C.3       1 <0>         0.1720
     15 C15         0.1603   -0.7115   -0.5038 C.3       1 <0>        -0.1440
     16 C16        -0.7001   -3.0797   -0.5749 C.3       1 <0>         0.1435
     17 C17        -0.9492   -1.6330   -1.0002 C.3       1 <0>         0.0000
     18 N1          1.4629   -1.2045   -0.9767 N.2       1 <0>        -0.3961
     19 O1         -0.0502    2.1589    1.4721 O.2       1 <0>        -0.5000
     20 O2          2.6127   -1.9029   -3.1798 O.2       1 <0>        -0.6500
     21 O3          0.3685   -0.9181   -3.2949 O.2       1 <0>        -0.6500
     22 S1         -0.8283    1.0600    0.8107 S.o       1 <0>         0.1560
     23 S2          1.6218   -1.0311   -2.5527 S.o2      1 <0>         0.8491
     24 H1         -4.6536   -6.3252   -2.2545 H         1 <0>         0.1500
     25 H2          3.9319    4.1127   -3.2176 H         1 <0>         0.1500
     26 H3         -4.8110   -5.2237   -0.0371 H         1 <0>         0.1500
     27 H4         -2.6738   -5.9310   -3.6976 H         1 <0>         0.1500
     28 H5          5.3901    2.1200   -2.9672 H         1 <0>         0.1500
     29 H6          1.4654    3.8572   -3.1766 H         1 <0>         0.1500
     30 H7         -2.9983   -3.7316    0.7390 H         1 <0>         0.1500
     31 H8         -0.8559   -4.4410   -2.9306 H         1 <0>         0.1500
     32 H9          4.3898   -0.1206   -2.6762 H         1 <0>         0.1500
     33 H10         0.4535    1.6213   -2.8870 H         1 <0>         0.1500
     34 H11         0.9236    1.3804   -0.9336 H         1 <0>         0.0000
     35 H12        -0.6431    1.0228   -1.6938 H         1 <0>         0.0000
     36 H13        -0.2734   -1.2456    1.6398 H         1 <0>         0.0000
     37 H14         1.1900   -0.2505    1.4635 H         1 <0>         0.0000
     38 H15        -0.6115   -3.1379    0.5177 H         1 <0>         0.0000
     39 H16         0.2605   -3.4270   -0.9771 H         1 <0>         0.0000
     40 H17        -1.0071   -1.5612   -2.0915 H         1 <0>         0.0000
     41 H18        -1.9069   -1.2788   -0.6044 H         1 <0>         0.0000
@<TRIPOS>BOND
     1    1    3 ar
     2    1    4 ar
     3    2    5 ar
     4    2    6 ar
     5    3    7 ar
     6    4    8 ar
     7    5    9 ar
     8    6   10 ar
     9    7   11 ar
    10    8   11 ar
    11    9   12 ar
    12   10   12 ar
    13   11   16 1
    14   12   23 1
    15   13   15 1
    16   13   22 1
    17   14   15 1
    18   14   22 1
    19   15   17 1
    20   15   18 1
    21   16   17 1
    22   18   23 1
    23   19   22 2
    24   20   23 2
    25   21   23 2
    26    1   24 1
    27    2   25 1
    28    3   26 1
    29    4   27 1
    30    5   28 1
    31    6   29 1
    32    7   30 1
    33    8   31 1
    34    9   32 1
    35   10   33 1
    36   13   34 1
    37   13   35 1
    38   14   36 1
    39   14   37 1
    40   16   38 1
    41   16   39 1
    42   17   40 1
    43   17   41 1
