@<TRIPOS>MOLECULE
*****
   40    41     0     0     0
SMALL
USER_CHARGES

@<TRIPOS>ATOM
      1 C1         -3.0040   -0.7962   -6.3718 C.ar      1 <0>        -0.1500
      2 C2         -3.5057   -1.3590   -5.1983 C.ar      1 <0>        -0.1500
      3 C3         -1.6792   -0.3630   -6.4267 C.ar      1 <0>        -0.1500
      4 C4         -2.6827   -1.4885   -4.0796 C.ar      1 <0>        -0.1500
      5 C5         -0.8562   -0.4924   -5.3079 C.ar      1 <0>        -0.1500
      6 C6         -1.3579   -1.0551   -4.1344 C.ar      1 <0>        -0.1435
      7 C7          0.2865    1.1050    0.1796 C.3       1 <0>         0.1720
      8 C8         -0.1960   -1.1088    0.2605 C.3       1 <0>         0.1720
      9 C9          0.3466   -0.1049   -0.8030 C.3       1 <0>         0.3070
     10 C10         4.7498    0.1439   -0.5541 C.3       1 <0>         0.3557
     11 C11         4.6196   -0.9505   -2.7491 C.3       1 <0>         0.3557
     12 C12        -0.4678   -1.1945   -2.9253 C.3       1 <0>         0.1435
     13 C13        -0.5468    0.0447   -2.0382 C.3       1 <0>         0.0000
     14 N1          1.7454   -0.4274   -1.2863 N.pl3     1 <0>        -0.8650
     15 N2          4.2461    0.2494   -1.9515 N.pl3     1 <0>        -0.8494
     16 O1         -0.5703    0.2176    2.5511 O.2       1 <0>        -0.5000
     17 O2          2.2524    0.6859   -3.5482 O.2       1 <0>        -0.6500
     18 O3          2.4434    2.0463   -1.4442 O.2       1 <0>        -0.6500
     19 S1         -1.0655    0.2737    1.1363 S.o       1 <0>         0.1560
     20 S2          2.6075    0.7848   -2.1441 S.o2      1 <0>         1.5760
     21 H1         -3.6446   -0.6968   -7.2432 H         1 <0>         0.1500
     22 H2         -4.5368   -1.6975   -5.1558 H         1 <0>         0.1500
     23 H3         -1.2880    0.0742   -7.3405 H         1 <0>         0.1500
     24 H4         -3.0822   -1.9280   -3.1694 H         1 <0>         0.1500
     25 H5          0.1746   -0.1519   -5.3598 H         1 <0>         0.1500
     26 H6          1.1934    1.2641    0.7732 H         1 <0>         0.0000
     27 H7         -0.0024    2.0579   -0.2736 H         1 <0>         0.0000
     28 H8         -0.8615   -1.8845   -0.1295 H         1 <0>         0.0000
     29 H9          0.5718   -1.5884    0.8775 H         1 <0>         0.0000
     30 H10         4.4593    1.0425    0.0098 H         1 <0>         0.0000
     31 H11         4.3162   -0.7460   -0.0744 H         1 <0>         0.0000
     32 H12         5.8463    0.0567   -0.5654 H         1 <0>         0.0000
     33 H13         4.2349   -0.8443   -3.7742 H         1 <0>         0.0000
     34 H14         5.7151   -1.0458   -2.7767 H         1 <0>         0.0000
     35 H15         4.1850   -1.8485   -2.2857 H         1 <0>         0.0000
     36 H16        -0.7571   -2.0854   -2.3528 H         1 <0>         0.0000
     37 H17         0.5689   -1.3617   -3.2452 H         1 <0>         0.0000
     38 H18        -0.2312    0.9342   -2.5898 H         1 <0>         0.0000
     39 H19        -1.5739    0.2159   -1.7056 H         1 <0>         0.0000
     40 H20         1.8509   -1.3915   -1.6279 H         1 <0>         0.4200
@<TRIPOS>BOND
     1    1    2 ar
     2    1    3 ar
     3    2    4 ar
     4    3    5 ar
     5    4    6 ar
     6    5    6 ar
     7    6   12 1
     8    7    9 1
     9    7   19 1
    10    8    9 1
    11    8   19 1
    12    9   13 1
    13    9   14 1
    14   10   15 1
    15   11   15 1
    16   12   13 1
    17   14   20 1
    18   15   20 1
    19   16   19 2
    20   17   20 2
    21   18   20 2
    22    1   21 1
    23    2   22 1
    24    3   23 1
    25    4   24 1
    26    5   25 1
    27    7   26 1
    28    7   27 1
    29    8   28 1
    30    8   29 1
    31   10   30 1
    32   10   31 1
    33   10   32 1
    34   11   33 1
    35   11   34 1
    36   11   35 1
    37   12   36 1
    38   12   37 1
    39   13   38 1
    40   13   39 1
    41   14   40 1
