@<TRIPOS>MOLECULE
*****
   39    40     0     0     0
SMALL
USER_CHARGES

@<TRIPOS>ATOM
      1 C1         -3.8565   -5.6697   -1.9161 C.ar      1 <0>        -0.1500
      2 C2         -3.9450   -5.0505   -0.6694 C.ar      1 <0>        -0.1500
      3 C3         -2.7435   -5.4483   -2.7273 C.ar      1 <0>        -0.1500
      4 C4         -2.9206   -4.2099   -0.2338 C.ar      1 <0>        -0.1500
      5 C5         -1.7192   -4.6077   -2.2918 C.ar      1 <0>        -0.1500
      6 C6         -1.8077   -3.9885   -1.0450 C.ar      1 <0>        -0.1435
      7 C7         -0.0015    0.8009   -0.8358 C.3       1 <0>         0.1720
      8 C8          0.2061   -0.4708    1.0336 C.3       1 <0>         0.1720
      9 C9          0.1603   -0.7115   -0.5038 C.3       1 <0>        -0.1440
     10 C10         3.6531    0.7655   -1.9701 C.3       1 <0>         0.3557
     11 C11         2.3120    1.2393   -3.9850 C.3       1 <0>         0.3557
     12 C12        -0.7001   -3.0797   -0.5749 C.3       1 <0>         0.1435
     13 C13        -0.9492   -1.6330   -1.0002 C.3       1 <0>         0.0000
     14 N1          1.4629   -1.2045   -0.9767 N.2       1 <0>        -0.3961
     15 N2          2.3460    0.5729   -2.6549 N.pl3     1 <0>        -0.8494
     16 O1         -0.0502    2.1589    1.4721 O.2       1 <0>        -0.5000
     17 O2          2.6202   -1.9153   -3.1681 O.2       1 <0>        -0.6500
     18 O3          0.3739   -0.9200   -3.2962 O.2       1 <0>        -0.6500
     19 S1         -0.8283    1.0600    0.8107 S.o       1 <0>         0.1560
     20 S2          1.6286   -1.0337   -2.5552 S.o2      1 <0>         0.9781
     21 H1         -4.6536   -6.3252   -2.2545 H         1 <0>         0.1500
     22 H2         -4.8110   -5.2237   -0.0371 H         1 <0>         0.1500
     23 H3         -2.6738   -5.9310   -3.6976 H         1 <0>         0.1500
     24 H4         -2.9983   -3.7316    0.7390 H         1 <0>         0.1500
     25 H5         -0.8559   -4.4410   -2.9306 H         1 <0>         0.1500
     26 H6          0.9236    1.3804   -0.9336 H         1 <0>         0.0000
     27 H7         -0.6431    1.0228   -1.6938 H         1 <0>         0.0000
     28 H8         -0.2734   -1.2456    1.6398 H         1 <0>         0.0000
     29 H9          1.1900   -0.2505    1.4635 H         1 <0>         0.0000
     30 H10         3.6344    0.2584   -0.9941 H         1 <0>         0.0000
     31 H11         4.4571    0.3403   -2.5887 H         1 <0>         0.0000
     32 H12         3.8341    1.8402   -1.8214 H         1 <0>         0.0000
     33 H13         1.3313    1.0721   -4.4544 H         1 <0>         0.0000
     34 H14         2.4784    2.3192   -3.8583 H         1 <0>         0.0000
     35 H15         3.1014    0.8193   -4.6256 H         1 <0>         0.0000
     36 H16        -0.6115   -3.1379    0.5177 H         1 <0>         0.0000
     37 H17         0.2605   -3.4270   -0.9771 H         1 <0>         0.0000
     38 H18        -1.0071   -1.5612   -2.0915 H         1 <0>         0.0000
     39 H19        -1.9069   -1.2788   -0.6044 H         1 <0>         0.0000
@<TRIPOS>BOND
     1    1    2 ar
     2    1    3 ar
     3    2    4 ar
     4    3    5 ar
     5    4    6 ar
     6    5    6 ar
     7    6   12 1
     8    7    9 1
     9    7   19 1
    10    8    9 1
    11    8   19 1
    12    9   13 1
    13    9   14 1
    14   10   15 1
    15   11   15 1
    16   12   13 1
    17   14   20 1
    18   15   20 1
    19   16   19 2
    20   17   20 2
    21   18   20 2
    22    1   21 1
    23    2   22 1
    24    3   23 1
    25    4   24 1
    26    5   25 1
    27    7   26 1
    28    7   27 1
    29    8   28 1
    30    8   29 1
    31   10   30 1
    32   10   31 1
    33   10   32 1
    34   11   33 1
    35   11   34 1
    36   11   35 1
    37   12   36 1
    38   12   37 1
    39   13   38 1
    40   13   39 1
