@<TRIPOS>MOLECULE
*****
   39    40     0     0     0
SMALL
USER_CHARGES

@<TRIPOS>ATOM
      1 C1          3.5424    1.3015   -6.0370 C.ar      1 <0>        -0.1500
      2 C2          2.8132    0.1373   -5.7953 C.ar      1 <0>        -0.1500
      3 C3          3.9306    2.1150   -4.9725 C.ar      1 <0>        -0.1500
      4 C4          2.4720   -0.2134   -4.4890 C.ar      1 <0>        -0.1500
      5 C5          3.5894    1.7644   -3.6662 C.ar      1 <0>        -0.1500
      6 C6          2.8601    0.6002   -3.4245 C.ar      1 <0>        -0.1435
      7 C7         -0.6190    0.9235    0.3219 C.3       1 <0>         0.1720
      8 C8          0.3944   -1.0848    0.0156 C.3       1 <0>         0.1720
      9 C9          0.7602    0.4144   -0.1903 C.3       1 <0>        -0.1440
     10 C10         1.1620    1.9871    3.5375 C.3       1 <0>         0.3557
     11 C11         0.3708    4.0648    2.4699 C.3       1 <0>         0.3557
     12 C12         2.4914    0.2218   -2.0122 C.3       1 <0>         0.1435
     13 C13         1.1423    0.8173   -1.6109 C.3       1 <0>         0.0000
     14 N1          1.8297    0.8055    0.7407 N.2       1 <0>        -0.3961
     15 N2          0.8294    2.6656    2.2555 N.pl3     1 <0>        -0.8494
     16 O1         -2.1068   -1.2082    0.9656 O.2       1 <0>        -0.5000
     17 O2          3.2207    2.8798    1.3803 O.2       1 <0>        -0.6500
     18 O3          1.3528    3.1595   -0.1964 O.2       1 <0>        -0.6500
     19 S1         -1.4007   -0.6677   -0.2426 S.o       1 <0>         0.1560
     20 S2          1.9280    2.3902    0.9053 S.o2      1 <0>         0.9781
     21 H1          3.8092    1.5736   -7.0540 H         1 <0>         0.1500
     22 H2          2.5118   -0.4969   -6.6239 H         1 <0>         0.1500
     23 H3          4.4993    3.0209   -5.1602 H         1 <0>         0.1500
     24 H4          1.9034   -1.1222   -4.3102 H         1 <0>         0.1500
     25 H5          3.8960    2.4043   -2.8431 H         1 <0>         0.1500
     26 H6         -0.7122    1.0733    1.4037 H         1 <0>         0.0000
     27 H7         -1.0052    1.8119   -0.1869 H         1 <0>         0.0000
     28 H8          0.8028   -1.7698   -0.7338 H         1 <0>         0.0000
     29 H9          0.5871   -1.5012    1.0108 H         1 <0>         0.0000
     30 H10         1.4953    0.9589    3.3331 H         1 <0>         0.0000
     31 H11         1.9662    2.5388    4.0463 H         1 <0>         0.0000
     32 H12         0.2703    1.9622    4.1811 H         1 <0>         0.0000
     33 H13         0.1365    4.5272    1.4997 H         1 <0>         0.0000
     34 H14        -0.5296    4.0627    3.1019 H         1 <0>         0.0000
     35 H15         1.1663    4.6392    2.9671 H         1 <0>         0.0000
     36 H16         2.4602   -0.8714   -1.9175 H         1 <0>         0.0000
     37 H17         3.2716    0.5652   -1.3205 H         1 <0>         0.0000
     38 H18         1.1748    1.9103   -1.6720 H         1 <0>         0.0000
     39 H19         0.3578    0.4812   -2.2971 H         1 <0>         0.0000
@<TRIPOS>BOND
     1    1    2 ar
     2    1    3 ar
     3    2    4 ar
     4    3    5 ar
     5    4    6 ar
     6    5    6 ar
     7    6   12 1
     8    7    9 1
     9    7   19 1
    10    8    9 1
    11    8   19 1
    12    9   13 1
    13    9   14 1
    14   10   15 1
    15   11   15 1
    16   12   13 1
    17   14   20 1
    18   15   20 1
    19   16   19 2
    20   17   20 2
    21   18   20 2
    22    1   21 1
    23    2   22 1
    24    3   23 1
    25    4   24 1
    26    5   25 1
    27    7   26 1
    28    7   27 1
    29    8   28 1
    30    8   29 1
    31   10   30 1
    32   10   31 1
    33   10   32 1
    34   11   33 1
    35   11   34 1
    36   11   35 1
    37   12   36 1
    38   12   37 1
    39   13   38 1
    40   13   39 1
