@<TRIPOS>MOLECULE
*****
   40    41     0     0     0
SMALL
USER_CHARGES

@<TRIPOS>ATOM
      1 C1         -5.7219   -1.4932   -4.1385 C.ar      1 <0>        -0.1500
      2 C2         -4.5224   -1.3398   -4.8335 C.ar      1 <0>        -0.1500
      3 C3         -5.8219   -1.0610   -2.8160 C.ar      1 <0>        -0.1500
      4 C4         -3.4227   -0.7544   -4.2061 C.ar      1 <0>        -0.1500
      5 C5         -4.7223   -0.4756   -2.1886 C.ar      1 <0>        -0.1500
      6 C6         -3.5227   -0.3223   -2.8836 C.ar      1 <0>        -0.1435
      7 C7         -0.6340    0.9279    0.2745 C.3       1 <0>         0.1720
      8 C8          0.4610   -1.0468    0.1719 C.3       1 <0>         0.1720
      9 C9         -0.2566   -0.0987   -0.8371 C.3       1 <0>         0.3070
     10 C10         0.8779    0.5103   -5.0666 C.3       1 <0>         0.3557
     11 C11         2.9226    1.4240   -4.0583 C.3       1 <0>         0.3557
     12 C12        -2.3343    0.3105   -2.2046 C.3       1 <0>         0.1435
     13 C13        -1.4708   -0.7377   -1.5033 C.3       1 <0>         0.0000
     14 N1          0.6396    0.4550   -1.9314 N.pl3     1 <0>        -0.8650
     15 N2          2.0496    0.2260   -4.1927 N.pl3     1 <0>        -0.8494
     16 O1          0.3818    0.0767    2.5988 O.2       1 <0>        -0.5000
     17 O2          2.9482   -0.6777   -1.9365 O.2       1 <0>        -0.6500
     18 O3          1.0091   -1.8461   -3.0267 O.2       1 <0>        -0.6500
     19 S1          0.8789    0.4236    1.2267 S.o       1 <0>         0.1560
     20 S2          1.7241   -0.6215   -2.7147 S.o2      1 <0>         1.5760
     21 H1         -6.5785   -1.9478   -4.6277 H         1 <0>         0.1500
     22 H2         -4.4446   -1.6753   -5.8636 H         1 <0>         0.1500
     23 H3         -6.7561   -1.1792   -2.2750 H         1 <0>         0.1500
     24 H4         -2.4920   -0.6392   -4.7553 H         1 <0>         0.1500
     25 H5         -4.8094   -0.1420   -1.1579 H         1 <0>         0.1500
     26 H6         -0.6371    1.9746   -0.0429 H         1 <0>         0.0000
     27 H7         -1.5664    0.7215    0.8109 H         1 <0>         0.0000
     28 H8         -0.1845   -1.7703    0.6815 H         1 <0>         0.0000
     29 H9          1.3310   -1.5756   -0.2281 H         1 <0>         0.0000
     30 H10         0.2525   -0.3910   -5.1470 H         1 <0>         0.0000
     31 H11         0.2862    1.3292   -4.6315 H         1 <0>         0.0000
     32 H12         1.2292    0.8032   -6.0670 H         1 <0>         0.0000
     33 H13         3.7775    1.1844   -3.4089 H         1 <0>         0.0000
     34 H14         3.2892    1.7237   -5.0511 H         1 <0>         0.0000
     35 H15         2.3462    2.2498   -3.6156 H         1 <0>         0.0000
     36 H16        -1.7328    0.8565   -2.9430 H         1 <0>         0.0000
     37 H17        -2.6770    1.0585   -1.4780 H         1 <0>         0.0000
     38 H18        -2.0553   -1.2655   -0.7423 H         1 <0>         0.0000
     39 H19        -1.1260   -1.4896   -2.2210 H         1 <0>         0.0000
     40 H20         0.9961    1.3989   -1.7334 H         1 <0>         0.4200
@<TRIPOS>BOND
     1    1    2 ar
     2    1    3 ar
     3    2    4 ar
     4    3    5 ar
     5    4    6 ar
     6    5    6 ar
     7    6   12 1
     8    7    9 1
     9    7   19 1
    10    8    9 1
    11    8   19 1
    12    9   13 1
    13    9   14 1
    14   10   15 1
    15   11   15 1
    16   12   13 1
    17   14   20 1
    18   15   20 1
    19   16   19 2
    20   17   20 2
    21   18   20 2
    22    1   21 1
    23    2   22 1
    24    3   23 1
    25    4   24 1
    26    5   25 1
    27    7   26 1
    28    7   27 1
    29    8   28 1
    30    8   29 1
    31   10   30 1
    32   10   31 1
    33   10   32 1
    34   11   33 1
    35   11   34 1
    36   11   35 1
    37   12   36 1
    38   12   37 1
    39   13   38 1
    40   13   39 1
    41   14   40 1
