@<TRIPOS>MOLECULE
*****
   35    36     0     0     0
SMALL
USER_CHARGES

@<TRIPOS>ATOM
      1 C1          0.3347   -7.2115    1.1828 C.ar      1 <0>        -0.1500
      2 C2          1.4351   -6.3886    1.4230 C.ar      1 <0>        -0.1500
      3 C3         -0.8055   -6.6906    0.5710 C.ar      1 <0>        -0.1500
      4 C4          1.3952   -5.0447    1.0514 C.ar      1 <0>        -0.1500
      5 C5         -0.8453   -5.3467    0.1995 C.ar      1 <0>        -0.1500
      6 C6          0.2550   -4.5237    0.4397 C.ar      1 <0>        -0.1435
      7 C7         -0.8306   -0.4413   -0.6803 C.3       1 <0>         0.0990
      8 C8          1.0381   -0.0854    0.5196 C.3       1 <0>         0.0990
      9 C9         -0.3535   -0.7283    0.7695 C.3       1 <0>        -0.1440
     10 C10        -1.0061   -1.2729    3.9488 C.3       1 <0>         0.1052
     11 C11         0.2111   -3.0710    0.0380 C.3       1 <0>         0.1435
     12 C12        -0.3360   -2.1948    1.1660 C.3       1 <0>         0.0000
     13 N1         -1.1366    0.0486    1.7465 N.2       1 <0>        -0.3961
     14 O1          1.2333    0.5132   -2.0705 O.2       1 <0>        -0.6500
     15 O2         -0.0440    2.1059   -0.5532 O.2       1 <0>        -0.6500
     16 O3          1.0653   -0.0469    3.0972 O.2       1 <0>        -0.6500
     17 O4         -0.8182    1.2729    4.0007 O.2       1 <0>        -0.6500
     18 S1          0.4294    0.7820   -0.8976 S.o2      1 <0>         1.1020
     19 S2         -0.3762    0.1817    3.1373 S.o2      1 <0>         0.7349
     20 H1          0.3665   -8.2582    1.4709 H         1 <0>         0.1500
     21 H2          2.3234   -6.7943    1.8983 H         1 <0>         0.1500
     22 H3         -1.6619   -7.3312    0.3828 H         1 <0>         0.1500
     23 H4          2.2572   -4.4110    1.2427 H         1 <0>         0.1500
     24 H5         -1.7380   -4.9495   -0.2765 H         1 <0>         0.1500
     25 H6         -0.7436   -1.2781   -1.3846 H         1 <0>         0.0000
     26 H7         -1.8339   -0.0056   -0.7849 H         1 <0>         0.0000
     27 H8          1.3977    0.6097    1.2907 H         1 <0>         0.0000
     28 H9          1.8486   -0.7853    0.2814 H         1 <0>         0.0000
     29 H10        -0.5667   -1.3285    4.9460 H         1 <0>         0.0000
     30 H11        -2.0919   -1.1880    4.0135 H         1 <0>         0.0000
     31 H12        -0.7251   -2.1458    3.3577 H         1 <0>         0.0000
     32 H13         1.2176   -2.7331   -0.2412 H         1 <0>         0.0000
     33 H14        -0.4096   -2.9529   -0.8596 H         1 <0>         0.0000
     34 H15        -1.3540   -2.5062    1.4277 H         1 <0>         0.0000
     35 H16         0.2747   -2.3135    2.0685 H         1 <0>         0.0000
@<TRIPOS>BOND
     1    1    2 ar
     2    1    3 ar
     3    2    4 ar
     4    3    5 ar
     5    4    6 ar
     6    5    6 ar
     7    6   11 1
     8    7    9 1
     9    7   18 1
    10    8    9 1
    11    8   18 1
    12    9   12 1
    13    9   13 1
    14   10   19 1
    15   11   12 1
    16   13   19 1
    17   14   18 2
    18   15   18 2
    19   16   19 2
    20   17   19 2
    21    1   20 1
    22    2   21 1
    23    3   22 1
    24    4   23 1
    25    5   24 1
    26    7   25 1
    27    7   26 1
    28    8   27 1
    29    8   28 1
    30   10   29 1
    31   10   30 1
    32   10   31 1
    33   11   32 1
    34   11   33 1
    35   12   34 1
    36   12   35 1
