@<TRIPOS>MOLECULE
*****
   36    37     0     0     0
SMALL
USER_CHARGES

@<TRIPOS>ATOM
      1 C1          4.6574    0.0952   -5.8669 C.ar      1 <0>        -0.1500
      2 C2          3.7203   -0.9379   -5.8763 C.ar      1 <0>        -0.1500
      3 C3          4.8795    0.8248   -4.6989 C.ar      1 <0>        -0.1500
      4 C4          3.0052   -1.2414   -4.7178 C.ar      1 <0>        -0.1500
      5 C5          4.1644    0.5213   -3.5404 C.ar      1 <0>        -0.1500
      6 C6          3.2272   -0.5118   -3.5498 C.ar      1 <0>        -0.1435
      7 C7          1.1143   -0.0648    0.3626 C.3       1 <0>         0.0990
      8 C8         -0.7614    0.6366   -0.6263 C.3       1 <0>         0.0990
      9 C9          0.3629   -0.3887   -0.9641 C.3       1 <0>         0.3070
     10 C10        -1.2846   -3.8418   -2.3931 C.3       1 <0>         0.1052
     11 C11         2.4544   -0.8393   -2.2971 C.3       1 <0>         0.1435
     12 C12         1.1548   -0.0377   -2.2176 C.3       1 <0>         0.0000
     13 N1         -0.1092   -1.8236   -1.0872 N.pl3     1 <0>        -0.8650
     14 O1         -0.2393    1.7867    1.7215 O.2       1 <0>        -0.6500
     15 O2         -1.1263   -0.5984    1.7125 O.2       1 <0>        -0.6500
     16 O3         -1.4813   -1.3692   -3.2285 O.2       1 <0>        -0.6500
     17 O4         -2.6310   -2.0308   -1.0844 O.2       1 <0>        -0.6500
     18 S1         -0.3958    0.4900    1.0985 S.o2      1 <0>         1.1020
     19 S2         -1.5024   -2.1235   -1.9905 S.o2      1 <0>         1.3328
     20 H1          5.2151    0.3306   -6.7687 H         1 <0>         0.1500
     21 H2          3.5481   -1.5068   -6.7853 H         1 <0>         0.1500
     22 H3          5.6097    1.6285   -4.6909 H         1 <0>         0.1500
     23 H4          2.2769   -2.0480   -4.7344 H         1 <0>         0.1500
     24 H5          4.3439    1.0952   -2.6351 H         1 <0>         0.1500
     25 H6          1.5611   -0.9205    0.8768 H         1 <0>         0.0000
     26 H7          1.8559    0.7385    0.2977 H         1 <0>         0.0000
     27 H8         -0.5940    1.6545   -0.9939 H         1 <0>         0.0000
     28 H9         -1.7787    0.3286   -0.8838 H         1 <0>         0.0000
     29 H10        -2.1382   -4.1666   -2.9900 H         1 <0>         0.0000
     30 H11        -0.3587   -3.9478   -2.9604 H         1 <0>         0.0000
     31 H12        -1.2304   -4.4091   -1.4627 H         1 <0>         0.0000
     32 H13         2.2320   -1.9139   -2.2691 H         1 <0>         0.0000
     33 H14         3.0739   -0.6335   -1.4146 H         1 <0>         0.0000
     34 H15         1.3709    1.0366   -2.2125 H         1 <0>         0.0000
     35 H16         0.5327   -0.2339   -3.0979 H         1 <0>         0.0000
     36 H17         0.0593   -2.3487   -0.2385 H         1 <0>         0.4200
@<TRIPOS>BOND
     1    1    2 ar
     2    1    3 ar
     3    2    4 ar
     4    3    5 ar
     5    4    6 ar
     6    5    6 ar
     7    6   11 1
     8    7    9 1
     9    7   18 1
    10    8    9 1
    11    8   18 1
    12    9   12 1
    13    9   13 1
    14   10   19 1
    15   11   12 1
    16   13   19 1
    17   14   18 2
    18   15   18 2
    19   16   19 2
    20   17   19 2
    21    1   20 1
    22    2   21 1
    23    3   22 1
    24    4   23 1
    25    5   24 1
    26    7   25 1
    27    7   26 1
    28    8   27 1
    29    8   28 1
    30   10   29 1
    31   10   30 1
    32   10   31 1
    33   11   32 1
    34   11   33 1
    35   12   34 1
    36   12   35 1
    37   13   36 1
