@<TRIPOS>MOLECULE
*****
   42    44     0     0     0
SMALL
USER_CHARGES

@<TRIPOS>ATOM
      1 C1         -4.1862   -1.2171   -5.6768 C.ar      1 <0>        -0.1500
      2 C2         -1.7456    1.2642    5.3099 C.ar      1 <0>        -0.1500
      3 C3         -2.7965   -1.1058   -5.7217 C.ar      1 <0>        -0.1500
      4 C4         -4.8949   -0.6755   -4.6044 C.ar      1 <0>        -0.1500
      5 C5         -2.1439    2.4765    4.7467 C.ar      1 <0>        -0.1500
      6 C6         -1.7209    0.1077    4.5304 C.ar      1 <0>        -0.1500
      7 C7         -2.1155   -0.4531   -4.6941 C.ar      1 <0>        -0.1500
      8 C8         -4.2140   -0.0227   -3.5768 C.ar      1 <0>        -0.1500
      9 C9         -2.5177    2.5324    3.4040 C.ar      1 <0>        -0.1500
     10 C10        -2.0947    0.1635    3.1877 C.ar      1 <0>        -0.1500
     11 C11        -2.8243    0.0885   -3.6217 C.ar      1 <0>        -0.1435
     12 C12        -2.4931    1.3759    2.6245 C.ar      1 <0>        -0.0090
     13 C13         0.5687    0.8321   -0.5841 C.3       1 <0>         0.0990
     14 C14        -0.5778   -0.3241    0.9614 C.3       1 <0>         0.0990
     15 C15        -0.9280    0.5325   -0.2881 C.3       1 <0>        -0.1440
     16 C16        -2.0888    0.7941   -2.5104 C.3       1 <0>         0.1435
     17 C17        -1.6945   -0.1764   -1.3958 C.3       1 <0>         0.0000
     18 N1         -1.6294    1.7625    0.1037 N.2       1 <0>        -0.3961
     19 O1          1.1388   -1.7766   -0.4818 O.2       1 <0>        -0.6500
     20 O2          2.0609   -0.2578    1.3382 O.2       1 <0>        -0.6500
     21 O3         -3.9691    2.5227    0.8864 O.2       1 <0>        -0.6500
     22 O4         -3.5382    0.1182    0.6581 O.2       1 <0>        -0.6500
     23 S1          1.0612   -0.5922    0.3465 S.o2      1 <0>         1.1020
     24 S2         -2.9793    1.4478    0.8909 S.o2      1 <0>         0.8491
     25 H1         -4.7163   -1.7242   -6.4776 H         1 <0>         0.1500
     26 H2         -1.4550    1.2199    6.3555 H         1 <0>         0.1500
     27 H3         -2.2445   -1.5265   -6.5571 H         1 <0>         0.1500
     28 H4         -5.9770   -0.7609   -4.5697 H         1 <0>         0.1500
     29 H5         -2.1642    3.3770    5.3535 H         1 <0>         0.1500
     30 H6         -1.4114   -0.8361    4.9694 H         1 <0>         0.1500
     31 H7         -1.0326   -0.3713   -4.7374 H         1 <0>         0.1500
     32 H8         -4.7745    0.3961   -2.7452 H         1 <0>         0.1500
     33 H9         -2.8273    3.4818    2.9754 H         1 <0>         0.1500
     34 H10        -2.0731   -0.7437    2.5901 H         1 <0>         0.1500
     35 H11         0.8649    0.7802   -1.6362 H         1 <0>         0.0000
     36 H12         0.9746    1.7526   -0.1495 H         1 <0>         0.0000
     37 H13        -0.5626    0.2031    1.9220 H         1 <0>         0.0000
     38 H14        -1.1501   -1.2494    1.0774 H         1 <0>         0.0000
     39 H15        -1.1923    1.2841   -2.9120 H         1 <0>         0.0000
     40 H16        -2.7165    1.5961   -2.1009 H         1 <0>         0.0000
     41 H17        -2.5884   -0.6452   -0.9680 H         1 <0>         0.0000
     42 H18        -1.0736   -0.9847   -1.7991 H         1 <0>         0.0000
@<TRIPOS>BOND
     1    1    3 ar
     2    1    4 ar
     3    2    5 ar
     4    2    6 ar
     5    3    7 ar
     6    4    8 ar
     7    5    9 ar
     8    6   10 ar
     9    7   11 ar
    10    8   11 ar
    11    9   12 ar
    12   10   12 ar
    13   11   16 1
    14   12   24 1
    15   13   15 1
    16   13   23 1
    17   14   15 1
    18   14   23 1
    19   15   17 1
    20   15   18 1
    21   16   17 1
    22   18   24 1
    23   19   23 2
    24   20   23 2
    25   21   24 2
    26   22   24 2
    27    1   25 1
    28    2   26 1
    29    3   27 1
    30    4   28 1
    31    5   29 1
    32    6   30 1
    33    7   31 1
    34    8   32 1
    35    9   33 1
    36   10   34 1
    37   13   35 1
    38   13   36 1
    39   14   37 1
    40   14   38 1
    41   16   39 1
    42   16   40 1
    43   17   41 1
    44   17   42 1
