@<TRIPOS>MOLECULE
*****
   43    45     0     0     0
SMALL
USER_CHARGES

@<TRIPOS>ATOM
      1 C1          4.6574    0.0952   -5.8669 C.ar      1 <0>        -0.1500
      2 C2         -0.5850   -6.2498   -3.7489 C.ar      1 <0>        -0.1500
      3 C3          3.7203   -0.9379   -5.8763 C.ar      1 <0>        -0.1500
      4 C4          4.8795    0.8248   -4.6989 C.ar      1 <0>        -0.1500
      5 C5         -1.2225   -6.1488   -2.5124 C.ar      1 <0>        -0.1500
      6 C6         -0.2250   -5.0955   -4.4444 C.ar      1 <0>        -0.1500
      7 C7          3.0052   -1.2414   -4.7178 C.ar      1 <0>        -0.1500
      8 C8          4.1644    0.5213   -3.5404 C.ar      1 <0>        -0.1500
      9 C9         -1.5003   -4.8935   -1.9714 C.ar      1 <0>        -0.1500
     10 C10        -0.5028   -3.8402   -3.9034 C.ar      1 <0>        -0.1500
     11 C11         3.2272   -0.5118   -3.5498 C.ar      1 <0>        -0.1435
     12 C12        -1.1404   -3.7391   -2.6669 C.ar      1 <0>        -0.0090
     13 C13         1.1143   -0.0648    0.3626 C.3       1 <0>         0.0990
     14 C14        -0.7614    0.6366   -0.6263 C.3       1 <0>         0.0990
     15 C15         0.3629   -0.3887   -0.9641 C.3       1 <0>         0.3070
     16 C16         2.4544   -0.8393   -2.2971 C.3       1 <0>         0.1435
     17 C17         1.1548   -0.0377   -2.2176 C.3       1 <0>         0.0000
     18 N1         -0.1092   -1.8236   -1.0872 N.pl3     1 <0>        -0.8650
     19 O1         -0.2393    1.7867    1.7215 O.2       1 <0>        -0.6500
     20 O2         -1.1263   -0.5984    1.7125 O.2       1 <0>        -0.6500
     21 O3         -1.6115   -1.2056   -3.0786 O.2       1 <0>        -0.6500
     22 O4         -2.5942   -2.3243   -1.0520 O.2       1 <0>        -0.6500
     23 S1         -0.3958    0.4900    1.0985 S.o2      1 <0>         1.1020
     24 S2         -1.4956   -2.1485   -1.9825 S.o2      1 <0>         1.4470
     25 H1          5.2151    0.3306   -6.7687 H         1 <0>         0.1500
     26 H2         -0.3689   -7.2270   -4.1710 H         1 <0>         0.1500
     27 H3          3.5481   -1.5068   -6.7853 H         1 <0>         0.1500
     28 H4          5.6097    1.6285   -4.6909 H         1 <0>         0.1500
     29 H5         -1.5038   -7.0472   -1.9711 H         1 <0>         0.1500
     30 H6          0.2707   -5.1745   -5.4073 H         1 <0>         0.1500
     31 H7          2.2769   -2.0480   -4.7344 H         1 <0>         0.1500
     32 H8          4.3439    1.0952   -2.6351 H         1 <0>         0.1500
     33 H9         -1.9982   -4.8261   -1.0078 H         1 <0>         0.1500
     34 H10        -0.2192   -2.9476   -4.4544 H         1 <0>         0.1500
     35 H11         1.5611   -0.9205    0.8768 H         1 <0>         0.0000
     36 H12         1.8559    0.7385    0.2977 H         1 <0>         0.0000
     37 H13        -0.5940    1.6545   -0.9939 H         1 <0>         0.0000
     38 H14        -1.7787    0.3286   -0.8838 H         1 <0>         0.0000
     39 H15         2.2320   -1.9139   -2.2691 H         1 <0>         0.0000
     40 H16         3.0739   -0.6335   -1.4146 H         1 <0>         0.0000
     41 H17         1.3709    1.0366   -2.2125 H         1 <0>         0.0000
     42 H18         0.5327   -0.2339   -3.0979 H         1 <0>         0.0000
     43 H19         0.6272   -2.5031   -0.9762 H         1 <0>         0.4200
@<TRIPOS>BOND
     1    1    3 ar
     2    1    4 ar
     3    2    5 ar
     4    2    6 ar
     5    3    7 ar
     6    4    8 ar
     7    5    9 ar
     8    6   10 ar
     9    7   11 ar
    10    8   11 ar
    11    9   12 ar
    12   10   12 ar
    13   11   16 1
    14   12   24 1
    15   13   15 1
    16   13   23 1
    17   14   15 1
    18   14   23 1
    19   15   17 1
    20   15   18 1
    21   16   17 1
    22   18   24 1
    23   19   23 2
    24   20   23 2
    25   21   24 2
    26   22   24 2
    27    1   25 1
    28    2   26 1
    29    3   27 1
    30    4   28 1
    31    5   29 1
    32    6   30 1
    33    7   31 1
    34    8   32 1
    35    9   33 1
    36   10   34 1
    37   13   35 1
    38   13   36 1
    39   14   37 1
    40   14   38 1
    41   16   39 1
    42   16   40 1
    43   17   41 1
    44   17   42 1
    45   18   43 1
