@<TRIPOS>MOLECULE
*****
   41    42     0     0     0
SMALL
USER_CHARGES

@<TRIPOS>ATOM
      1 C1          4.6574    0.0952   -5.8669 C.ar      1 <0>        -0.1500
      2 C2          3.7203   -0.9379   -5.8763 C.ar      1 <0>        -0.1500
      3 C3          4.8795    0.8248   -4.6989 C.ar      1 <0>        -0.1500
      4 C4          3.0052   -1.2415   -4.7178 C.ar      1 <0>        -0.1500
      5 C5          4.1644    0.5213   -3.5404 C.ar      1 <0>        -0.1500
      6 C6          3.2272   -0.5118   -3.5498 C.ar      1 <0>        -0.1435
      7 C7          1.1143   -0.0648    0.3626 C.3       1 <0>         0.0990
      8 C8         -0.7614    0.6366   -0.6263 C.3       1 <0>         0.0990
      9 C9          0.3629   -0.3887   -0.9641 C.3       1 <0>         0.3070
     10 C10        -0.1232   -4.1975   -3.1497 C.3       1 <0>         0.3557
     11 C11        -1.5563   -4.7493   -1.2329 C.3       1 <0>         0.3557
     12 C12         2.4544   -0.8393   -2.2971 C.3       1 <0>         0.1435
     13 C13         1.1548   -0.0377   -2.2176 C.3       1 <0>         0.0000
     14 N1         -0.1092   -1.8236   -1.0872 N.pl3     1 <0>        -0.8650
     15 N2         -1.3377   -3.8202   -2.3750 N.pl3     1 <0>        -0.8494
     16 O1         -0.2393    1.7867    1.7215 O.2       1 <0>        -0.6500
     17 O2         -1.1263   -0.5984    1.7125 O.2       1 <0>        -0.6500
     18 O3         -2.6754   -1.9821   -1.1314 O.2       1 <0>        -0.6500
     19 O4         -1.4500   -1.3756   -3.2396 O.2       1 <0>        -0.6500
     20 S1         -0.3958    0.4900    1.0985 S.o2      1 <0>         1.1020
     21 S2         -1.5264   -2.1361   -2.0050 S.o2      1 <0>         1.5760
     22 H1          5.2151    0.3306   -6.7687 H         1 <0>         0.1500
     23 H2          3.5481   -1.5068   -6.7853 H         1 <0>         0.1500
     24 H3          5.6097    1.6285   -4.6909 H         1 <0>         0.1500
     25 H4          2.2769   -2.0480   -4.7344 H         1 <0>         0.1500
     26 H5          4.3439    1.0952   -2.6351 H         1 <0>         0.1500
     27 H6          1.5611   -0.9205    0.8768 H         1 <0>         0.0000
     28 H7          1.8559    0.7385    0.2977 H         1 <0>         0.0000
     29 H8         -0.5940    1.6545   -0.9939 H         1 <0>         0.0000
     30 H9         -1.7787    0.3286   -0.8838 H         1 <0>         0.0000
     31 H10         0.0123   -3.4948   -3.9852 H         1 <0>         0.0000
     32 H11         0.7576   -4.1592   -2.4920 H         1 <0>         0.0000
     33 H12        -0.2423   -5.2174   -3.5442 H         1 <0>         0.0000
     34 H13        -2.4581   -4.4464   -0.6806 H         1 <0>         0.0000
     35 H14        -1.6860   -5.7733   -1.6131 H         1 <0>         0.0000
     36 H15        -0.6861   -4.7151   -0.5609 H         1 <0>         0.0000
     37 H16         2.2320   -1.9139   -2.2691 H         1 <0>         0.0000
     38 H17         3.0739   -0.6335   -1.4146 H         1 <0>         0.0000
     39 H18         1.3709    1.0366   -2.2125 H         1 <0>         0.0000
     40 H19         0.5327   -0.2339   -3.0979 H         1 <0>         0.0000
     41 H20         0.0061   -2.3705   -0.2241 H         1 <0>         0.4200
@<TRIPOS>BOND
     1    1    2 ar
     2    1    3 ar
     3    2    4 ar
     4    3    5 ar
     5    4    6 ar
     6    5    6 ar
     7    6   12 1
     8    7    9 1
     9    7   20 1
    10    8    9 1
    11    8   20 1
    12    9   13 1
    13    9   14 1
    14   10   15 1
    15   11   15 1
    16   12   13 1
    17   14   21 1
    18   15   21 1
    19   16   20 2
    20   17   20 2
    21   18   21 2
    22   19   21 2
    23    1   22 1
    24    2   23 1
    25    3   24 1
    26    4   25 1
    27    5   26 1
    28    7   27 1
    29    7   28 1
    30    8   29 1
    31    8   30 1
    32   10   31 1
    33   10   32 1
    34   10   33 1
    35   11   34 1
    36   11   35 1
    37   11   36 1
    38   12   37 1
    39   12   38 1
    40   13   39 1
    41   13   40 1
    42   14   41 1
