@<TRIPOS>MOLECULE
*****
   40    41     0     0     0
SMALL
USER_CHARGES

@<TRIPOS>ATOM
      1 C1         -4.1862   -1.2171   -5.6768 C.ar      1 <0>        -0.1500
      2 C2         -2.7965   -1.1058   -5.7217 C.ar      1 <0>        -0.1500
      3 C3         -4.8949   -0.6755   -4.6044 C.ar      1 <0>        -0.1500
      4 C4         -2.1155   -0.4531   -4.6941 C.ar      1 <0>        -0.1500
      5 C5         -4.2140   -0.0227   -3.5768 C.ar      1 <0>        -0.1500
      6 C6         -2.8243    0.0885   -3.6217 C.ar      1 <0>        -0.1435
      7 C7          0.5687    0.8321   -0.5841 C.3       1 <0>         0.0990
      8 C8         -0.5778   -0.3241    0.9614 C.3       1 <0>         0.0990
      9 C9         -0.9280    0.5325   -0.2881 C.3       1 <0>        -0.1440
     10 C10        -1.7706    2.6431    3.0818 C.3       1 <0>         0.3557
     11 C11        -3.3116    0.7777    3.5596 C.3       1 <0>         0.3557
     12 C12        -2.0888    0.7941   -2.5104 C.3       1 <0>         0.1435
     13 C13        -1.6945   -0.1764   -1.3958 C.3       1 <0>         0.0000
     14 N1         -1.6294    1.7625    0.1037 N.2       1 <0>        -0.3961
     15 N2         -2.4073    1.4044    2.5577 N.pl3     1 <0>        -0.8494
     16 O1          1.1388   -1.7766   -0.4818 O.2       1 <0>        -0.6500
     17 O2          2.0609   -0.2578    1.3382 O.2       1 <0>        -0.6500
     18 O3         -3.9646    2.5351    0.8765 O.2       1 <0>        -0.6500
     19 O4         -3.5388    0.1216    0.6594 O.2       1 <0>        -0.6500
     20 S1          1.0612   -0.5922    0.3465 S.o2      1 <0>         1.1020
     21 S2         -2.9823    1.4529    0.8925 S.o2      1 <0>         0.9781
     22 H1         -4.7163   -1.7242   -6.4776 H         1 <0>         0.1500
     23 H2         -2.2445   -1.5265   -6.5571 H         1 <0>         0.1500
     24 H3         -5.9770   -0.7609   -4.5697 H         1 <0>         0.1500
     25 H4         -1.0326   -0.3713   -4.7374 H         1 <0>         0.1500
     26 H5         -4.7745    0.3961   -2.7452 H         1 <0>         0.1500
     27 H6          0.8649    0.7802   -1.6362 H         1 <0>         0.0000
     28 H7          0.9746    1.7526   -0.1495 H         1 <0>         0.0000
     29 H8         -0.5626    0.2031    1.9220 H         1 <0>         0.0000
     30 H9         -1.1501   -1.2494    1.0774 H         1 <0>         0.0000
     31 H10        -1.1128    3.0720    2.3115 H         1 <0>         0.0000
     32 H11        -2.5504    3.3727    3.3456 H         1 <0>         0.0000
     33 H12        -1.1780    2.4004    3.9761 H         1 <0>         0.0000
     34 H13        -3.7593   -0.1316    3.1320 H         1 <0>         0.0000
     35 H14        -2.7358    0.5146    4.4591 H         1 <0>         0.0000
     36 H15        -4.1083    1.4869    3.8285 H         1 <0>         0.0000
     37 H16        -1.1923    1.2841   -2.9120 H         1 <0>         0.0000
     38 H17        -2.7165    1.5961   -2.1009 H         1 <0>         0.0000
     39 H18        -2.5884   -0.6452   -0.9680 H         1 <0>         0.0000
     40 H19        -1.0736   -0.9847   -1.7991 H         1 <0>         0.0000
@<TRIPOS>BOND
     1    1    2 ar
     2    1    3 ar
     3    2    4 ar
     4    3    5 ar
     5    4    6 ar
     6    5    6 ar
     7    6   12 1
     8    7    9 1
     9    7   20 1
    10    8    9 1
    11    8   20 1
    12    9   13 1
    13    9   14 1
    14   10   15 1
    15   11   15 1
    16   12   13 1
    17   14   21 1
    18   15   21 1
    19   16   20 2
    20   17   20 2
    21   18   21 2
    22   19   21 2
    23    1   22 1
    24    2   23 1
    25    3   24 1
    26    4   25 1
    27    5   26 1
    28    7   27 1
    29    7   28 1
    30    8   29 1
    31    8   30 1
    32   10   31 1
    33   10   32 1
    34   10   33 1
    35   11   34 1
    36   11   35 1
    37   11   36 1
    38   12   37 1
    39   12   38 1
    40   13   39 1
    41   13   40 1
