@<TRIPOS>MOLECULE
*****
   26    27     0     0     0
SMALL
USER_CHARGES

@<TRIPOS>ATOM
      1 C1          1.8881   -1.0344   -0.1123 C.ar      1 <0>        -0.1500
      2 C2          2.4462   -2.1050    0.5862 C.ar      1 <0>        -0.1500
      3 C3          1.2858    0.0141    0.5831 C.ar      1 <0>        -0.1500
      4 C4          2.4020   -2.1271    1.9802 C.ar      1 <0>        -0.1500
      5 C5          1.2416   -0.0080    1.9771 C.ar      1 <0>        -0.1500
      6 C6          2.1932   -1.9705    5.0807 C.2       1 <0>        -0.1500
      7 C7          1.7997   -1.0786    2.6757 C.ar      1 <0>         0.0530
      8 C8          1.7549   -1.1012    4.1171 C.2       1 <0>         0.0870
      9 C9          1.8064   -1.3572    6.2848 C.2       1 <0>         0.4338
     10 C10         1.5950   -2.1412   10.2024 C.3       1 <0>         0.1052
     11 N1          1.1764   -0.1964    6.0834 N.2       1 <0>        -0.4097
     12 N2          2.0439   -1.8846    7.5614 N.pl3     1 <0>        -0.7030
     13 O1          2.9571   -0.1362    9.2579 O.2       1 <0>        -0.6500
     14 O2          0.4759   -0.2142    8.8306 O.2       1 <0>        -0.6500
     15 O3          1.1464   -0.0385    4.7030 O.3       1 <0>        -0.0191
     16 S1          1.7541   -0.8871    8.9508 S.o2      1 <0>         1.3328
     17 H1          1.9231   -1.0169   -1.1977 H         1 <0>         0.1500
     18 H2          2.9150   -2.9214    0.0445 H         1 <0>         0.1500
     19 H3          0.8522    0.8483    0.0392 H         1 <0>         0.1500
     20 H4          2.8439   -2.9674    2.5103 H         1 <0>         0.1500
     21 H5          0.7676    0.8163    2.5045 H         1 <0>         0.1500
     22 H6          2.7134   -2.9061    4.9331 H         1 <0>         0.1500
     23 H7          1.4049   -1.6512   11.1587 H         1 <0>         0.0000
     24 H8          0.7616   -2.7920    9.9339 H         1 <0>         0.0000
     25 H9          2.5262   -2.7083   10.2418 H         1 <0>         0.0000
     26 H10         2.9018   -2.4732    7.6532 H         1 <0>         0.4200
@<TRIPOS>BOND
     1    1    2 ar
     2    1    3 ar
     3    2    4 ar
     4    3    5 ar
     5    4    7 ar
     6    5    7 ar
     7    6    8 2
     8    6    9 1
     9    7    8 1
    10    8   15 1
    11    9   11 2
    12    9   12 1
    13   10   16 1
    14   11   15 1
    15   12   16 1
    16   13   16 2
    17   14   16 2
    18    1   17 1
    19    2   18 1
    20    3   19 1
    21    4   20 1
    22    5   21 1
    23    6   22 1
    24   10   23 1
    25   10   24 1
    26   10   25 1
    27   12   26 1
