@<TRIPOS>MOLECULE
*****
   25    26     0     0     0
SMALL
USER_CHARGES

@<TRIPOS>ATOM
      1 C1          1.8881   -1.0344   -0.1123 C.ar      1 <0>        -0.1500
      2 C2          2.4473   -2.1044    0.5863 C.ar      1 <0>        -0.1500
      3 C3          1.2848    0.0135    0.5831 C.ar      1 <0>        -0.1500
      4 C4          2.4031   -2.1265    1.9803 C.ar      1 <0>        -0.1500
      5 C5          1.2405   -0.0086    1.9771 C.ar      1 <0>        -0.1500
      6 C6          2.1940   -1.9700    5.0807 C.2       1 <0>        -0.1500
      7 C7          1.7997   -1.0786    2.6757 C.ar      1 <0>         0.0530
      8 C8          1.7549   -1.1012    4.1171 C.2       1 <0>         0.0870
      9 C9          1.8082   -1.3563    6.2849 C.2       1 <0>        -0.0172
     10 C10         2.9969   -0.0706    9.1262 C.3       1 <0>         0.1052
     11 N1          1.1781   -0.1956    6.0836 N.2       1 <0>        -0.4097
     12 N2          2.0209   -1.8336    7.5484 N.2       1 <0>        -0.2341
     13 O1          1.4246   -1.8498   10.0583 O.2       1 <0>        -0.6500
     14 O2          0.4945   -0.0579    8.6318 O.2       1 <0>        -0.6500
     15 O3          1.1469   -0.0383    4.7031 O.3       1 <0>        -0.0191
     16 S1          1.5410   -1.0552    8.8387 S.o2      1 <0>         0.7349
     17 H1          1.9231   -1.0169   -1.1977 H         1 <0>         0.1500
     18 H2          2.9168   -2.9203    0.0446 H         1 <0>         0.1500
     19 H3          0.8503    0.8473    0.0391 H         1 <0>         0.1500
     20 H4          2.8458   -2.9664    2.5104 H         1 <0>         0.1500
     21 H5          0.7657    0.8153    2.5045 H         1 <0>         0.1500
     22 H6          2.7145   -2.9055    4.9303 H         1 <0>         0.1500
     23 H7          2.8269    0.5454   10.0106 H         1 <0>         0.0000
     24 H8          3.8414   -0.7429    9.2850 H         1 <0>         0.0000
     25 H9          3.1667    0.5568    8.2500 H         1 <0>         0.0000
@<TRIPOS>BOND
     1    1    2 ar
     2    1    3 ar
     3    2    4 ar
     4    3    5 ar
     5    4    7 ar
     6    5    7 ar
     7    6    8 2
     8    6    9 1
     9    7    8 1
    10    8   15 1
    11    9   11 2
    12    9   12 1
    13   10   16 1
    14   11   15 1
    15   12   16 1
    16   13   16 2
    17   14   16 2
    18    1   17 1
    19    2   18 1
    20    3   19 1
    21    4   20 1
    22    5   21 1
    23    6   22 1
    24   10   23 1
    25   10   24 1
    26   10   25 1
