@<TRIPOS>MOLECULE
*****
   27    28     0     0     0
SMALL
USER_CHARGES

@<TRIPOS>ATOM
      1 C1          1.8848   -1.0340   -0.1124 C.ar      1 <0>        -0.1500
      2 C2          2.2581    0.0962    0.6149 C.ar      1 <0>        -0.1500
      3 C3          1.4689   -2.1865    0.5543 C.ar      1 <0>        -0.1500
      4 C4          2.2156    0.0739    2.0089 C.ar      1 <0>        -0.1500
      5 C5          1.4264   -2.2088    1.9483 C.ar      1 <0>        -0.1500
      6 C6          2.0604   -0.1467    5.0830 C.2       1 <0>        -0.1870
      7 C7          1.7997   -1.0786    2.6757 C.ar      1 <0>         0.0530
      8 C8          1.7549   -1.1012    4.1171 C.2       1 <0>         0.0870
      9 C9          1.8035   -0.7962    6.3146 C.cat     1 <0>         0.7690
     10 C10         1.4695    0.0873   10.1458 C.3       1 <0>         0.1052
     11 N1          1.3674   -2.0748    6.0603 N.pl3     1 <0>        -0.5270
     12 N2          1.9662   -0.2350    7.5025 N.pl3     1 <0>        -0.6400
     13 O1          0.7738   -2.1236    8.9647 O.2       1 <0>        -0.6500
     14 O2          3.2261   -1.6627    9.3095 O.2       1 <0>        -0.6500
     15 O3          1.3280   -2.2936    4.6554 O.3       1 <0>         0.0370
     16 S1          1.8908   -1.1978    8.9902 S.o2      1 <0>         1.5528
     17 H1          1.9173   -1.0164   -1.1979 H         1 <0>         0.1500
     18 H2          2.5821    0.9934    0.0955 H         1 <0>         0.1500
     19 H3          1.1771   -3.0662   -0.0121 H         1 <0>         0.1500
     20 H4          2.5072    0.9638    2.5615 H         1 <0>         0.1500
     21 H5          1.1009   -3.1152    2.4533 H         1 <0>         0.1500
     22 H6          2.4125    0.8606    4.9259 H         1 <0>         0.1500
     23 H7          1.3838   -0.3569   11.1387 H         1 <0>         0.0000
     24 H8          2.2611    0.8380   10.1297 H         1 <0>         0.0000
     25 H9          0.5189    0.5270    9.8402 H         1 <0>         0.0000
     26 H10         1.1044   -2.7864    6.7352 H         1 <0>         0.4500
     27 H11         2.7241    0.5244    7.6285 H         1 <0>         0.4500
@<TRIPOS>BOND
     1    1    2 ar
     2    1    3 ar
     3    2    4 ar
     4    3    5 ar
     5    4    7 ar
     6    5    7 ar
     7    6    8 2
     8    6    9 1
     9    7    8 1
    10    8   15 1
    11    9   11 2
    12    9   12 1
    13   10   16 1
    14   11   15 1
    15   12   16 1
    16   13   16 2
    17   14   16 2
    18    1   17 1
    19    2   18 1
    20    3   19 1
    21    4   20 1
    22    5   21 1
    23    6   22 1
    24   10   23 1
    25   10   24 1
    26   10   25 1
    27   11   26 1
    28   12   27 1
