@<TRIPOS>MOLECULE
*****
   33    35     0     0     0
SMALL
USER_CHARGES

@<TRIPOS>ATOM
      1 C1          1.8881   -1.0344   -0.1123 C.ar      1 <0>        -0.1500
      2 C2         -2.8642   -3.3948    6.7906 C.ar      1 <0>        -0.1500
      3 C3          2.4462   -2.1050    0.5862 C.ar      1 <0>        -0.1500
      4 C4          1.2858    0.0141    0.5831 C.ar      1 <0>        -0.1500
      5 C5         -2.0260   -4.2284    7.5310 C.ar      1 <0>        -0.1500
      6 C6         -2.5653   -2.0380    6.6658 C.ar      1 <0>        -0.1500
      7 C7          2.4020   -2.1271    1.9802 C.ar      1 <0>        -0.1500
      8 C8          1.2416   -0.0080    1.9771 C.ar      1 <0>        -0.1500
      9 C9         -0.8890   -3.7053    8.1467 C.ar      1 <0>        -0.1500
     10 C10        -1.4282   -1.5149    7.2815 C.ar      1 <0>        -0.1500
     11 C11         2.1932   -1.9705    5.0807 C.2       1 <0>        -0.1500
     12 C12         1.7997   -1.0786    2.6757 C.ar      1 <0>         0.0530
     13 C13        -0.5900   -2.3485    8.0219 C.ar      1 <0>        -0.0090
     14 C14         1.7549   -1.1012    4.1171 C.2       1 <0>         0.0870
     15 C15         1.8064   -1.3572    6.2848 C.2       1 <0>         0.4338
     16 N1          1.1764   -0.1964    6.0834 N.2       1 <0>        -0.4097
     17 N2          2.0439   -1.8846    7.5614 N.pl3     1 <0>        -0.7030
     18 O1          1.1595   -2.5551    9.9252 O.2       1 <0>        -0.6500
     19 O2          0.6189   -0.2714    9.0354 O.2       1 <0>        -0.6500
     20 O3          1.1464   -0.0385    4.7030 O.3       1 <0>        -0.0191
     21 S1          0.8511   -1.6845    8.8061 S.o2      1 <0>         1.4470
     22 H1          1.9231   -1.0169   -1.1977 H         1 <0>         0.1500
     23 H2         -3.7501   -3.8013    6.3114 H         1 <0>         0.1500
     24 H3          2.9150   -2.9214    0.0445 H         1 <0>         0.1500
     25 H4          0.8522    0.8483    0.0392 H         1 <0>         0.1500
     26 H5         -2.2590   -5.2846    7.6292 H         1 <0>         0.1500
     27 H6         -3.2184   -1.3892    6.0899 H         1 <0>         0.1500
     28 H7          2.8439   -2.9674    2.5103 H         1 <0>         0.1500
     29 H8          0.7676    0.8163    2.5045 H         1 <0>         0.1500
     30 H9         -0.2432   -4.3634    8.7219 H         1 <0>         0.1500
     31 H10        -1.2057   -0.4563    7.1788 H         1 <0>         0.1500
     32 H11         2.7134   -2.9061    4.9331 H         1 <0>         0.1500
     33 H12         2.5454   -2.7998    7.6030 H         1 <0>         0.4200
@<TRIPOS>BOND
     1    1    3 ar
     2    1    4 ar
     3    2    5 ar
     4    2    6 ar
     5    3    7 ar
     6    4    8 ar
     7    5    9 ar
     8    6   10 ar
     9    7   12 ar
    10    8   12 ar
    11    9   13 ar
    12   10   13 ar
    13   11   14 2
    14   11   15 1
    15   12   14 1
    16   13   21 1
    17   14   20 1
    18   15   16 2
    19   15   17 1
    20   16   20 1
    21   17   21 1
    22   18   21 2
    23   19   21 2
    24    1   22 1
    25    2   23 1
    26    3   24 1
    27    4   25 1
    28    5   26 1
    29    6   27 1
    30    7   28 1
    31    8   29 1
    32    9   30 1
    33   10   31 1
    34   11   32 1
    35   17   33 1
