@<TRIPOS>MOLECULE
*****
   32    34     0     0     0
SMALL
USER_CHARGES

@<TRIPOS>ATOM
      1 C1          1.8881   -1.0344   -0.1123 C.ar      1 <0>        -0.1500
      2 C2         -2.9979   -3.2566    7.4109 C.ar      1 <0>        -0.1500
      3 C3          2.4473   -2.1044    0.5863 C.ar      1 <0>        -0.1500
      4 C4          1.2848    0.0135    0.5831 C.ar      1 <0>        -0.1500
      5 C5         -2.0979   -4.0521    8.1200 C.ar      1 <0>        -0.1500
      6 C6         -2.6716   -1.9346    7.1080 C.ar      1 <0>        -0.1500
      7 C7          2.4031   -2.1265    1.9802 C.ar      1 <0>        -0.1500
      8 C8          1.2405   -0.0086    1.9771 C.ar      1 <0>        -0.1500
      9 C9         -0.8718   -3.5257    8.5264 C.ar      1 <0>        -0.1500
     10 C10        -1.4455   -1.4082    7.5143 C.ar      1 <0>        -0.1500
     11 C11         2.1940   -1.9700    5.0807 C.2       1 <0>        -0.1500
     12 C12         1.7997   -1.0786    2.6757 C.ar      1 <0>         0.0530
     13 C13        -0.5455   -2.2037    8.2235 C.ar      1 <0>        -0.0090
     14 C14         1.7549   -1.1012    4.1171 C.2       1 <0>         0.0870
     15 C15         1.8082   -1.3563    6.2849 C.2       1 <0>        -0.0172
     16 N1          1.1781   -0.1956    6.0836 N.2       1 <0>        -0.4097
     17 N2          2.0209   -1.8336    7.5484 N.2       1 <0>        -0.2341
     18 O1          0.7221   -0.1103    8.9545 O.2       1 <0>        -0.6500
     19 O2          1.3017   -2.2619    9.9847 O.2       1 <0>        -0.6500
     20 O3          1.1469   -0.0383    4.7031 O.3       1 <0>        -0.0191
     21 S1          1.0384   -1.5226    8.7519 S.o2      1 <0>         0.8491
     22 H1          1.9231   -1.0169   -1.1977 H         1 <0>         0.1500
     23 H2         -3.9531   -3.6656    7.0948 H         1 <0>         0.1500
     24 H3          2.9168   -2.9203    0.0446 H         1 <0>         0.1500
     25 H4          0.8503    0.8473    0.0391 H         1 <0>         0.1500
     26 H5         -2.3520   -5.0810    8.3570 H         1 <0>         0.1500
     27 H6         -3.3728   -1.3153    6.5565 H         1 <0>         0.1500
     28 H7          2.8458   -2.9664    2.5104 H         1 <0>         0.1500
     29 H8          0.7657    0.8153    2.5045 H         1 <0>         0.1500
     30 H9         -0.1784   -4.1538    9.0791 H         1 <0>         0.1500
     31 H10        -1.2022   -0.3768    7.2741 H         1 <0>         0.1500
     32 H11         2.7145   -2.9055    4.9303 H         1 <0>         0.1500
@<TRIPOS>BOND
     1    1    3 ar
     2    1    4 ar
     3    2    5 ar
     4    2    6 ar
     5    3    7 ar
     6    4    8 ar
     7    5    9 ar
     8    6   10 ar
     9    7   12 ar
    10    8   12 ar
    11    9   13 ar
    12   10   13 ar
    13   11   14 2
    14   11   15 1
    15   12   14 1
    16   13   21 1
    17   14   20 1
    18   15   16 2
    19   15   17 1
    20   16   20 1
    21   17   21 1
    22   18   21 2
    23   19   21 2
    24    1   22 1
    25    2   23 1
    26    3   24 1
    27    4   25 1
    28    5   26 1
    29    6   27 1
    30    7   28 1
    31    8   29 1
    32    9   30 1
    33   10   31 1
    34   11   32 1
