@<TRIPOS>MOLECULE
*****
   34    36     0     0     0
SMALL
USER_CHARGES

@<TRIPOS>ATOM
      1 C1          1.8848   -1.0340   -0.1124 C.ar      1 <0>        -0.1500
      2 C2          0.5562    2.1542   11.8782 C.ar      1 <0>        -0.1500
      3 C3          2.2581    0.0962    0.6149 C.ar      1 <0>        -0.1500
      4 C4          1.4689   -2.1865    0.5543 C.ar      1 <0>        -0.1500
      5 C5         -0.4155    1.4411   11.1762 C.ar      1 <0>        -0.1500
      6 C6          1.9066    1.8532   11.7007 C.ar      1 <0>        -0.1500
      7 C7          2.2156    0.0739    2.0089 C.ar      1 <0>        -0.1500
      8 C8          1.4264   -2.2088    1.9483 C.ar      1 <0>        -0.1500
      9 C9         -0.0368    0.4268   10.2967 C.ar      1 <0>        -0.1500
     10 C10         2.2853    0.8390   10.8212 C.ar      1 <0>        -0.1500
     11 C11         2.0604   -0.1467    5.0830 C.2       1 <0>        -0.1870
     12 C12         1.7997   -1.0786    2.6757 C.ar      1 <0>         0.0530
     13 C13         1.3137    0.1258   10.1192 C.ar      1 <0>        -0.0090
     14 C14         1.7549   -1.1012    4.1171 C.2       1 <0>         0.0870
     15 C15         1.8035   -0.7962    6.3146 C.cat     1 <0>         0.7690
     16 N1          1.3674   -2.0748    6.0603 N.pl3     1 <0>        -0.5270
     17 N2          1.9662   -0.2350    7.5025 N.pl3     1 <0>        -0.6400
     18 O1          0.6846   -2.0970    8.9405 O.2       1 <0>        -0.6500
     19 O2          3.1060   -1.6309    9.4087 O.2       1 <0>        -0.6500
     20 O3          1.3280   -2.2936    4.6554 O.3       1 <0>         0.0370
     21 S1          1.7936   -1.1635    9.0056 S.o2      1 <0>         1.6670
     22 H1          1.9173   -1.0164   -1.1979 H         1 <0>         0.1500
     23 H2          0.2619    2.9437   12.5637 H         1 <0>         0.1500
     24 H3          2.5821    0.9934    0.0955 H         1 <0>         0.1500
     25 H4          1.1771   -3.0662   -0.0121 H         1 <0>         0.1500
     26 H5         -1.4670    1.6744   11.3149 H         1 <0>         0.1500
     27 H6          2.6628    2.4082   12.2480 H         1 <0>         0.1500
     28 H7          2.5072    0.9638    2.5615 H         1 <0>         0.1500
     29 H8          1.1009   -3.1152    2.4533 H         1 <0>         0.1500
     30 H9         -0.8019   -0.1232    9.7554 H         1 <0>         0.1500
     31 H10         3.3400    0.6120   10.6916 H         1 <0>         0.1500
     32 H11         2.4125    0.8606    4.9259 H         1 <0>         0.1500
     33 H12         1.1044   -2.7864    6.7352 H         1 <0>         0.4500
     34 H13         2.7201    0.5268    7.6466 H         1 <0>         0.4500
@<TRIPOS>BOND
     1    1    3 ar
     2    1    4 ar
     3    2    5 ar
     4    2    6 ar
     5    3    7 ar
     6    4    8 ar
     7    5    9 ar
     8    6   10 ar
     9    7   12 ar
    10    8   12 ar
    11    9   13 ar
    12   10   13 ar
    13   11   14 2
    14   11   15 1
    15   12   14 1
    16   13   21 1
    17   14   20 1
    18   15   16 2
    19   15   17 1
    20   16   20 1
    21   17   21 1
    22   18   21 2
    23   19   21 2
    24    1   22 1
    25    2   23 1
    26    3   24 1
    27    4   25 1
    28    5   26 1
    29    6   27 1
    30    7   28 1
    31    8   29 1
    32    9   30 1
    33   10   31 1
    34   11   32 1
    35   16   33 1
    36   17   34 1
