@<TRIPOS>MOLECULE
*****
   33    35     0     0     0
SMALL
USER_CHARGES

@<TRIPOS>ATOM
      1 C1          1.8852   -1.0360   -0.1124 C.ar      1 <0>        -0.1500
      2 C2         -2.0132   -2.3327   11.7039 C.ar      1 <0>        -0.1500
      3 C3          0.6848   -0.7859    0.5524 C.ar      1 <0>        -0.1500
      4 C4          3.0429   -1.3075    0.6168 C.ar      1 <0>        -0.1500
      5 C5         -1.1467   -3.3231   11.2414 C.ar      1 <0>        -0.1500
      6 C6         -1.8735   -1.0191   11.2558 C.ar      1 <0>        -0.1500
      7 C7          0.6420   -0.8072    1.9464 C.ar      1 <0>        -0.1500
      8 C8          3.0001   -1.3288    2.0108 C.ar      1 <0>        -0.1500
      9 C9         -0.1406   -3.0000   10.3310 C.ar      1 <0>        -0.1500
     10 C10        -0.8674   -0.6960   10.3454 C.ar      1 <0>        -0.1500
     11 C11         1.7997   -1.0786    2.6757 C.ar      1 <0>         0.0284
     12 C12        -0.0009   -1.6865    9.8829 C.ar      1 <0>        -0.0090
     13 C13         0.7021   -1.4383    4.8717 C.2       1 <0>        -0.1356
     14 C14         1.7557   -1.1009    4.1294 C.2       1 <0>         0.0483
     15 C15         1.2549   -1.2706    6.2175 C.2       1 <0>         0.4856
     16 N1          0.5590   -1.4960    7.2820 N.2       1 <0>        -0.6380
     17 N2          2.5523   -0.8602    6.1427 N.pl3     1 <0>        -0.4710
     18 O1          1.5577    0.1314    8.9520 O.2       1 <0>        -0.6500
     19 O2          2.3284   -2.2662    8.8941 O.2       1 <0>        -0.6500
     20 O3          2.9220   -0.7386    4.8114 O.3       1 <0>        -0.0557
     21 S1          1.2790   -1.2760    8.7294 S.o2      1 <0>         1.4970
     22 H1          1.9182   -1.0207   -1.1978 H         1 <0>         0.1500
     23 H2         -2.7965   -2.5834   12.4133 H         1 <0>         0.1500
     24 H3         -0.2171   -0.5756   -0.0153 H         1 <0>         0.1500
     25 H4          3.9774   -1.5034    0.0992 H         1 <0>         0.1500
     26 H5         -1.2544   -4.3457   11.5908 H         1 <0>         0.1500
     27 H6         -2.5478   -0.2481   11.6166 H         1 <0>         0.1500
     28 H7         -0.3012   -0.6102    2.4505 H         1 <0>         0.1500
     29 H8          3.9110   -1.5419    2.5652 H         1 <0>         0.1500
     30 H9          0.5296   -3.7792    9.9778 H         1 <0>         0.1500
     31 H10        -0.7669    0.3307   10.0040 H         1 <0>         0.1500
     32 H11        -0.2881   -1.7490    4.5947 H         1 <0>         0.1500
     33 H12         3.2078   -0.6586    6.8860 H         1 <0>         0.4000
@<TRIPOS>BOND
     1    1    3 ar
     2    1    4 ar
     3    2    5 ar
     4    2    6 ar
     5    3    7 ar
     6    4    8 ar
     7    5    9 ar
     8    6   10 ar
     9    7   11 ar
    10    8   11 ar
    11    9   12 ar
    12   10   12 ar
    13   11   14 1
    14   12   21 1
    15   13   14 2
    16   13   15 1
    17   14   20 1
    18   15   16 2
    19   15   17 1
    20   16   21 1
    21   17   20 1
    22   18   21 2
    23   19   21 2
    24    1   22 1
    25    2   23 1
    26    3   24 1
    27    4   25 1
    28    5   26 1
    29    6   27 1
    30    7   28 1
    31    8   29 1
    32    9   30 1
    33   10   31 1
    34   13   32 1
    35   17   33 1
