@<TRIPOS>MOLECULE
*****
   31    32     0     0     0
SMALL
USER_CHARGES

@<TRIPOS>ATOM
      1 C1          7.4991   -4.3611    1.1417 C.ar      1 <0>        -0.1500
      2 C2          7.0569   -3.0973    1.5327 C.ar      1 <0>        -0.1500
      3 C3          6.5922   -5.2906    0.6324 C.ar      1 <0>        -0.1500
      4 C4          5.7079   -2.7630    1.4145 C.ar      1 <0>        -0.1500
      5 C5          5.2431   -4.9563    0.5142 C.ar      1 <0>        -0.1500
      6 C6          4.8010   -3.6925    0.9053 C.ar      1 <0>         0.0284
      7 C7          2.9102   -2.1221    0.5652 C.2       1 <0>        -0.1356
      8 C8          3.4050   -3.3471    0.7829 C.2       1 <0>         0.0483
      9 C9          1.4727   -2.4012    0.5401 C.2       1 <0>         0.4856
     10 C10        -1.7397    0.6314    1.0825 C.3       1 <0>         0.3557
     11 C11        -1.8699    0.0974   -1.3167 C.3       1 <0>         0.3557
     12 N1          0.5954   -1.4763    0.3519 N.2       1 <0>        -0.6380
     13 N2          1.2505   -3.7310    0.7391 N.pl3     1 <0>        -0.4710
     14 N3         -1.9103   -0.4432    0.0684 N.pl3     1 <0>        -0.8494
     15 O1         -1.3447   -2.3825    1.6682 O.2       1 <0>        -0.6500
     16 O2         -1.2261   -2.7714   -0.7981 O.2       1 <0>        -0.6500
     17 O3          2.4644   -4.3830    0.8983 O.3       1 <0>        -0.0557
     18 S1         -0.9882   -1.8998    0.3425 S.o2      1 <0>         1.6260
     19 H1          8.5496   -4.6210    1.2326 H         1 <0>         0.1500
     20 H2          7.7631   -2.3730    1.9282 H         1 <0>         0.1500
     21 H3          6.9365   -6.2743    0.3269 H         1 <0>         0.1500
     22 H4          5.3783   -1.7738    1.7236 H         1 <0>         0.1500
     23 H5          4.5485   -5.6917    0.1154 H         1 <0>         0.1500
     24 H6          3.4052   -1.1771    0.4408 H         1 <0>         0.1500
     25 H7         -1.7751    0.1936    2.0910 H         1 <0>         0.0000
     26 H8         -0.7692    1.1268    0.9318 H         1 <0>         0.0000
     27 H9         -2.5486    1.3690    0.9745 H         1 <0>         0.0000
     28 H10        -1.9991   -0.7250   -2.0358 H         1 <0>         0.0000
     29 H11        -2.6801    0.8298   -1.4481 H         1 <0>         0.0000
     30 H12        -0.9007    0.5876   -1.4908 H         1 <0>         0.0000
     31 H13         0.3772   -4.2395    0.7757 H         1 <0>         0.4000
@<TRIPOS>BOND
     1    1    2 ar
     2    1    3 ar
     3    2    4 ar
     4    3    5 ar
     5    4    6 ar
     6    5    6 ar
     7    6    8 1
     8    7    8 2
     9    7    9 1
    10    8   17 1
    11    9   12 2
    12    9   13 1
    13   10   14 1
    14   11   14 1
    15   12   18 1
    16   13   17 1
    17   14   18 1
    18   15   18 2
    19   16   18 2
    20    1   19 1
    21    2   20 1
    22    3   21 1
    23    4   22 1
    24    5   23 1
    25    7   24 1
    26   10   25 1
    27   10   26 1
    28   10   27 1
    29   11   28 1
    30   11   29 1
    31   11   30 1
    32   13   31 1
