@<TRIPOS>MOLECULE
*****
   31    32     0     0     0
SMALL
USER_CHARGES

@<TRIPOS>ATOM
      1 C1         -6.2005   -5.5495   -4.8895 C.ar      1 <0>        -0.1500
      2 C2         -4.8312   -5.3043   -4.7876 C.ar      1 <0>        -0.1500
      3 C3         -7.0582   -5.1536   -3.8632 C.ar      1 <0>        -0.1500
      4 C4         -4.3195   -4.6632   -3.6594 C.ar      1 <0>        -0.1500
      5 C5         -6.5466   -4.5125   -2.7350 C.ar      1 <0>        -0.1500
      6 C6         -3.4001   -3.2246   -1.0679 C.2       1 <0>        -0.1500
      7 C7         -5.1772   -4.2673   -2.6330 C.ar      1 <0>         0.0530
      8 C8         -4.6511   -3.6073   -1.4736 C.2       1 <0>         0.0870
      9 C9         -3.6231   -2.6271    0.1846 C.2       1 <0>         0.4338
     10 C10        -0.3125   -0.9510    2.9379 C.3       1 <0>         0.3557
     11 C11        -1.8144    0.9545    2.4966 C.3       1 <0>         0.3557
     12 N1         -4.9138   -2.6383    0.5295 N.2       1 <0>        -0.4097
     13 N2         -2.5951   -2.0615    1.0175 N.pl3     1 <0>        -0.7030
     14 N3         -1.7062   -0.4447    2.9735 N.pl3     1 <0>        -0.8494
     15 O1         -4.2419   -0.8497    2.6405 O.2       1 <0>        -0.6500
     16 O2         -2.8012   -2.7167    3.4767 O.2       1 <0>        -0.6500
     17 O3         -5.5631   -3.2629   -0.5287 O.3       1 <0>        -0.0191
     18 S1         -2.9749   -1.5565    2.6186 S.o2      1 <0>         1.5760
     19 H1         -6.5989   -6.0482   -5.7682 H         1 <0>         0.1500
     20 H2         -4.1634   -5.6128   -5.5867 H         1 <0>         0.1500
     21 H3         -8.1246   -5.3436   -3.9430 H         1 <0>         0.1500
     22 H4         -3.2501   -4.4768   -3.5961 H         1 <0>         0.1500
     23 H5         -7.2281   -4.2111   -1.9431 H         1 <0>         0.1500
     24 H6         -2.4684   -3.3584   -1.5987 H         1 <0>         0.1500
     25 H7         -0.2896   -1.9893    3.3006 H         1 <0>         0.0000
     26 H8          0.0643   -0.9152    1.9051 H         1 <0>         0.0000
     27 H9          0.3219   -0.3239    3.5816 H         1 <0>         0.0000
     28 H10        -2.8646    1.2783    2.5438 H         1 <0>         0.0000
     29 H11        -1.2005    1.6076    3.1343 H         1 <0>         0.0000
     30 H12        -1.4580    1.0163    1.4578 H         1 <0>         0.0000
     31 H13        -1.6782   -2.5157    0.9099 H         1 <0>         0.4200
@<TRIPOS>BOND
     1    1    2 ar
     2    1    3 ar
     3    2    4 ar
     4    3    5 ar
     5    4    7 ar
     6    5    7 ar
     7    6    8 2
     8    6    9 1
     9    7    8 1
    10    8   17 1
    11    9   12 2
    12    9   13 1
    13   10   14 1
    14   11   14 1
    15   12   17 1
    16   13   18 1
    17   14   18 1
    18   15   18 2
    19   16   18 2
    20    1   19 1
    21    2   20 1
    22    3   21 1
    23    4   22 1
    24    5   23 1
    25    6   24 1
    26   10   25 1
    27   10   26 1
    28   10   27 1
    29   11   28 1
    30   11   29 1
    31   11   30 1
    32   13   31 1
