@<TRIPOS>MOLECULE
*****
   30    31     0     0     0
SMALL
USER_CHARGES

@<TRIPOS>ATOM
      1 C1         -4.2997   -7.0941    4.9884 C.ar      1 <0>        -0.1500
      2 C2         -2.9368   -6.9428    4.7331 C.ar      1 <0>        -0.1500
      3 C3         -5.2118   -6.1711    4.4766 C.ar      1 <0>        -0.1500
      4 C4         -2.4859   -5.8685    3.9662 C.ar      1 <0>        -0.1500
      5 C5         -4.7609   -5.0968    3.7097 C.ar      1 <0>        -0.1500
      6 C6         -1.7058   -3.4118    2.2384 C.2       1 <0>        -0.1500
      7 C7         -3.3979   -4.9455    3.4544 C.ar      1 <0>         0.0530
      8 C8         -2.9343   -3.8416    2.6652 C.2       1 <0>         0.0870
      9 C9         -1.9959   -2.2522    1.4988 C.2       1 <0>        -0.0172
     10 C10        -0.6187   -1.4939   -2.2008 C.3       1 <0>         0.3557
     11 C11        -3.0436   -1.6076   -1.7659 C.3       1 <0>         0.3557
     12 N1         -3.3042   -1.9835    1.4692 N.2       1 <0>        -0.4097
     13 N2         -1.1036   -1.4540    0.8640 N.2       1 <0>        -0.2341
     14 N3         -1.7886   -0.8349   -1.5593 N.pl3     1 <0>        -0.8494
     15 O1         -0.4725    0.8323   -0.1416 O.2       1 <0>        -0.6500
     16 O2         -2.8316    0.4036    0.4158 O.2       1 <0>        -0.6500
     17 O3         -3.8963   -2.9974    2.2125 O.3       1 <0>        -0.0191
     18 S1         -1.5322   -0.1566    0.0484 S.o2      1 <0>         0.9781
     19 H1         -4.6508   -7.9310    5.5850 H         1 <0>         0.1500
     20 H2         -2.2268   -7.6616    5.1319 H         1 <0>         0.1500
     21 H3         -6.2732   -6.2895    4.6744 H         1 <0>         0.1500
     22 H4         -1.4206   -5.7660    3.7739 H         1 <0>         0.1500
     23 H5         -5.4844   -4.3853    3.3188 H         1 <0>         0.1500
     24 H6         -0.7471   -3.8711    2.4349 H         1 <0>         0.1500
     25 H7          0.2846   -0.8915   -2.0241 H         1 <0>         0.0000
     26 H8         -0.4807   -2.4965   -1.7696 H         1 <0>         0.0000
     27 H9         -0.7950   -1.5814   -3.2830 H         1 <0>         0.0000
     28 H10        -3.8802   -1.0868   -1.2773 H         1 <0>         0.0000
     29 H11        -3.2462   -1.6963   -2.8435 H         1 <0>         0.0000
     30 H12        -2.9319   -2.6114   -1.3300 H         1 <0>         0.0000
@<TRIPOS>BOND
     1    1    2 ar
     2    1    3 ar
     3    2    4 ar
     4    3    5 ar
     5    4    7 ar
     6    5    7 ar
     7    6    8 2
     8    6    9 1
     9    7    8 1
    10    8   17 1
    11    9   12 2
    12    9   13 1
    13   10   14 1
    14   11   14 1
    15   12   17 1
    16   13   18 1
    17   14   18 1
    18   15   18 2
    19   16   18 2
    20    1   19 1
    21    2   20 1
    22    3   21 1
    23    4   22 1
    24    5   23 1
    25    6   24 1
    26   10   25 1
    27   10   26 1
    28   10   27 1
    29   11   28 1
    30   11   29 1
    31   11   30 1
