@<TRIPOS>MOLECULE
*****
   33    34     0     0     0
SMALL
USER_CHARGES

@<TRIPOS>ATOM
      1 C1          1.3837   -6.4715   -4.6111 C.ar      1 <0>        -0.1500
      2 C2          1.2991   -5.0831   -4.7155 C.ar      1 <0>        -0.1500
      3 C3          0.8715   -7.1189   -3.4867 C.ar      1 <0>        -0.1500
      4 C4          0.7023   -4.3421   -3.6955 C.ar      1 <0>        -0.1500
      5 C5          0.2747   -6.3778   -2.4667 C.ar      1 <0>        -0.1500
      6 C6         -0.6473   -2.8619   -1.3553 C.2       1 <0>        -0.1870
      7 C7          0.1901   -4.9895   -2.5711 C.ar      1 <0>         0.0530
      8 C8         -0.4255   -4.2261   -1.5210 C.2       1 <0>         0.0870
      9 C9         -1.3008   -2.7603   -0.1034 C.cat     1 <0>         0.7690
     10 C10        -0.0090   -1.4448    4.2391 C.3       1 <0>         0.5030
     11 C11         0.8724   -0.6871    2.0329 C.3       1 <0>         0.5030
     12 N1         -1.4462   -4.0207    0.4258 N.pl3     1 <0>        -0.5270
     13 N2         -1.7318   -1.5170    0.4914 N.pl3     1 <0>        -0.6400
     14 N3         -0.1043   -1.5725    2.7481 N.4       1 <0>        -0.8290
     15 O1         -2.0009    0.1231    2.4788 O.2       1 <0>        -0.6500
     16 O2         -2.5543   -2.3073    2.7854 O.2       1 <0>        -0.6500
     17 O3         -0.8914   -4.9787   -0.4672 O.3       1 <0>         0.0370
     18 S1         -1.7319   -1.2720    2.1850 S.o2      1 <0>         2.0310
     19 H1          1.8479   -7.0485   -5.4056 H         1 <0>         0.1500
     20 H2          1.6983   -4.5793   -5.5910 H         1 <0>         0.1500
     21 H3          0.9364   -8.2001   -3.4059 H         1 <0>         0.1500
     22 H4          0.6416   -3.2608   -3.7930 H         1 <0>         0.1500
     23 H5         -0.1189   -6.8972   -1.5962 H         1 <0>         0.1500
     24 H6         -0.3812   -2.0642   -2.0306 H         1 <0>         0.1500
     25 H7         -0.2379   -0.4101    4.5008 H         1 <0>         0.0000
     26 H8         -0.7343   -2.1311    4.6803 H         1 <0>         0.0000
     27 H9          1.0091   -1.7077    4.5325 H         1 <0>         0.0000
     28 H10         0.6434    0.3464    2.2995 H         1 <0>         0.0000
     29 H11         1.8763   -0.9639    2.3605 H         1 <0>         0.0000
     30 H12         0.7499   -0.8521    0.9608 H         1 <0>         0.0000
     31 H13        -1.8740   -4.2766    1.3104 H         1 <0>         0.4500
     32 H14        -1.5221   -0.6875   -0.0797 H         1 <0>         0.4500
     33 H15         0.1109   -2.5465    2.4974 H         1 <0>         0.4500
@<TRIPOS>BOND
     1    1    2 ar
     2    1    3 ar
     3    2    4 ar
     4    3    5 ar
     5    4    7 ar
     6    5    7 ar
     7    6    8 2
     8    6    9 1
     9    7    8 1
    10    8   17 1
    11    9   12 2
    12    9   13 1
    13   10   14 1
    14   11   14 1
    15   12   17 1
    16   13   18 1
    17   14   18 1
    18   15   18 2
    19   16   18 2
    20    1   19 1
    21    2   20 1
    22    3   21 1
    23    4   22 1
    24    5   23 1
    25    6   24 1
    26   10   25 1
    27   10   26 1
    28   10   27 1
    29   11   28 1
    30   11   29 1
    31   11   30 1
    32   12   31 1
    33   13   32 1
    34   14   33 1
