@<TRIPOS>MOLECULE
*****
   32    33     0     0     0
SMALL
USER_CHARGES

@<TRIPOS>ATOM
      1 C1         -7.1597   -3.2398   -5.1460 C.ar      1 <0>        -0.1500
      2 C2         -6.1345   -2.3034   -5.0129 C.ar      1 <0>        -0.1500
      3 C3         -7.4585   -4.1016   -4.0907 C.ar      1 <0>        -0.1500
      4 C4         -5.4081   -2.2288   -3.8245 C.ar      1 <0>        -0.1500
      5 C5         -6.7320   -4.0270   -2.9023 C.ar      1 <0>        -0.1500
      6 C6         -3.9075   -2.1984   -1.1344 C.2       1 <0>        -0.1870
      7 C7         -5.7068   -3.0906   -2.7692 C.ar      1 <0>         0.0530
      8 C8         -4.9591   -3.0130   -1.5448 C.2       1 <0>         0.0870
      9 C9         -3.6231   -2.6271    0.1846 C.cat     1 <0>         0.7690
     10 C10        -0.2218   -0.9270    2.8097 C.3       1 <0>         0.3557
     11 C11        -2.2897   -0.5349    4.0948 C.3       1 <0>         0.3557
     12 N1         -4.4812   -3.6491    0.5146 N.pl3     1 <0>        -0.5270
     13 N2         -2.5951   -2.0615    1.0175 N.pl3     1 <0>        -0.6400
     14 N3         -1.4467   -1.5295    3.3899 N.pl3     1 <0>        -0.8494
     15 O1         -3.4119   -3.2066    3.2165 O.2       1 <0>        -0.6500
     16 O2         -1.1919   -3.8132    2.2348 O.2       1 <0>        -0.6500
     17 O3         -5.3488   -3.9145   -0.5808 O.3       1 <0>         0.0370
     18 S1         -2.2041   -2.8092    2.5177 S.o2      1 <0>         1.7960
     19 H1         -7.7257   -3.2974   -6.0712 H         1 <0>         0.1500
     20 H2         -5.9019   -1.6326   -5.8349 H         1 <0>         0.1500
     21 H3         -8.2575   -4.8300   -4.1939 H         1 <0>         0.1500
     22 H4         -4.6137   -1.4916   -3.7353 H         1 <0>         0.1500
     23 H5         -6.9764   -4.7065   -2.0893 H         1 <0>         0.1500
     24 H6         -3.4214   -1.4167   -1.6965 H         1 <0>         0.1500
     25 H7          0.3647   -1.7059    2.3004 H         1 <0>         0.0000
     26 H8         -0.5039   -0.1484    2.0857 H         1 <0>         0.0000
     27 H9          0.3823   -0.4795    3.6127 H         1 <0>         0.0000
     28 H10        -3.1810   -1.0331    4.5040 H         1 <0>         0.0000
     29 H11        -1.7138   -0.0821    4.9153 H         1 <0>         0.0000
     30 H12        -2.5999    0.2491    3.3883 H         1 <0>         0.0000
     31 H13        -4.5258   -4.1639    1.3887 H         1 <0>         0.4500
     32 H14        -1.7910   -1.6940    0.4912 H         1 <0>         0.4500
@<TRIPOS>BOND
     1    1    2 ar
     2    1    3 ar
     3    2    4 ar
     4    3    5 ar
     5    4    7 ar
     6    5    7 ar
     7    6    8 2
     8    6    9 1
     9    7    8 1
    10    8   17 1
    11    9   12 2
    12    9   13 1
    13   10   14 1
    14   11   14 1
    15   12   17 1
    16   13   18 1
    17   14   18 1
    18   15   18 2
    19   16   18 2
    20    1   19 1
    21    2   20 1
    22    3   21 1
    23    4   22 1
    24    5   23 1
    25    6   24 1
    26   10   25 1
    27   10   26 1
    28   10   27 1
    29   11   28 1
    30   11   29 1
    31   11   30 1
    32   12   31 1
    33   13   32 1
