@<TRIPOS>MOLECULE
*****
   32    33     0     0     0
SMALL
USER_CHARGES

@<TRIPOS>ATOM
      1 C1         -0.7843   -9.0881   -0.8923 C.ar      1 <0>        -0.1500
      2 C2         -1.5457   -8.5252    0.1319 C.ar      1 <0>        -0.1500
      3 C3         -0.1026   -8.2643   -1.7881 C.ar      1 <0>        -0.1500
      4 C4         -1.6255   -7.1386    0.2603 C.ar      1 <0>        -0.1500
      5 C5         -0.1824   -6.8777   -1.6597 C.ar      1 <0>        -0.1500
      6 C6         -1.6615   -4.0371    0.3607 C.2       1 <0>        -0.1500
      7 C7         -0.9439   -6.3148   -0.6355 C.ar      1 <0>         0.0530
      8 C8         -1.0253   -4.8891   -0.5027 C.2       1 <0>         0.0870
      9 C9         -1.3008   -2.7603   -0.1034 C.2       1 <0>         0.4338
     10 C10         0.5260   -1.1079    2.6664 C.3       1 <0>         0.5030
     11 C11         1.7296    0.5719    1.2709 C.3       1 <0>         0.5030
     12 N1         -0.5020   -2.8161   -1.1728 N.2       1 <0>        -0.4097
     13 N2         -1.7318   -1.5170    0.4914 N.pl3     1 <0>        -0.7030
     14 N3          0.7639   -0.5756    1.2850 N.4       1 <0>        -0.8290
     15 O1         -0.3833    0.2416   -0.8506 O.2       1 <0>        -0.6500
     16 O2         -1.3544    0.8551    1.3826 O.2       1 <0>        -0.6500
     17 O3         -0.3300   -4.1724   -1.4225 O.3       1 <0>        -0.0191
     18 S1         -0.7361   -0.1253    0.5079 S.o2      1 <0>         1.8110
     19 H1         -0.7216  -10.1678   -0.9919 H         1 <0>         0.1500
     20 H2         -2.0766   -9.1669    0.8292 H         1 <0>         0.1500
     21 H3          0.4912   -8.7026   -2.5849 H         1 <0>         0.1500
     22 H4         -2.2210   -6.7152    1.0656 H         1 <0>         0.1500
     23 H5          0.3539   -6.2491   -2.3666 H         1 <0>         0.1500
     24 H6         -2.2910   -4.3009    1.1985 H         1 <0>         0.1500
     25 H7          0.0999   -0.3016    3.2662 H         1 <0>         0.0000
     26 H8         -0.1682   -1.9467    2.5863 H         1 <0>         0.0000
     27 H9          1.4874   -1.4313    3.0700 H         1 <0>         0.0000
     28 H10         1.3026    1.3750    1.8743 H         1 <0>         0.0000
     29 H11         2.6721    0.2206    1.6950 H         1 <0>         0.0000
     30 H12         1.8591    0.8868    0.2336 H         1 <0>         0.0000
     31 H13        -2.3443   -1.6369    1.3092 H         1 <0>         0.4200
     32 H14         1.1656   -1.3328    0.7165 H         1 <0>         0.4500
@<TRIPOS>BOND
     1    1    2 ar
     2    1    3 ar
     3    2    4 ar
     4    3    5 ar
     5    4    7 ar
     6    5    7 ar
     7    6    8 2
     8    6    9 1
     9    7    8 1
    10    8   17 1
    11    9   12 2
    12    9   13 1
    13   10   14 1
    14   11   14 1
    15   12   17 1
    16   13   18 1
    17   14   18 1
    18   15   18 2
    19   16   18 2
    20    1   19 1
    21    2   20 1
    22    3   21 1
    23    4   22 1
    24    5   23 1
    25    6   24 1
    26   10   25 1
    27   10   26 1
    28   10   27 1
    29   11   28 1
    30   11   29 1
    31   11   30 1
    32   13   31 1
    33   14   32 1
