@<TRIPOS>MOLECULE
*****
   26    27     0     0     0
SMALL
USER_CHARGES

@<TRIPOS>ATOM
      1 C1          1.8857   -1.0384   -0.1125 C.ar      1 <0>        -0.1500
      2 C2          1.0218   -1.9134    0.5460 C.ar      1 <0>        -0.1500
      3 C3          2.7067   -0.1835    0.6231 C.ar      1 <0>        -0.1500
      4 C4          0.9788   -1.9335    1.9401 C.ar      1 <0>        -0.1500
      5 C5          2.6636   -0.2037    2.0171 C.ar      1 <0>        -0.1500
      6 C6          0.9725   -1.8904    4.8397 C.2       1 <0>        -0.3016
      7 C7          1.7997   -1.0786    2.6757 C.ar      1 <0>        -0.0230
      8 C8          1.3129   -1.5196    6.1163 C.2       1 <0>         0.3722
      9 C9          0.2275   -1.9576    9.9412 C.3       1 <0>         0.1052
     10 N1          2.2680   -0.5422    6.0715 N.2       1 <0>        -0.2272
     11 N2          2.5345   -0.2900    4.7947 N.2       1 <0>        -0.4180
     12 N3          1.7565   -1.0993    4.0577 N.pl3     1 <0>         0.5926
     13 N4          0.7916   -2.0321    7.3106 N.pl3     1 <0>        -0.7030
     14 O1          2.6072   -2.5789    9.0936 O.2       1 <0>        -0.6500
     15 O2          1.8306   -0.1941    8.8605 O.2       1 <0>        -0.6500
     16 S1          1.5583   -1.6169    8.8110 S.o2      1 <0>         1.3328
     17 H1          1.9209   -1.0235   -1.1978 H         1 <0>         0.1500
     18 H2          0.3835   -2.5800   -0.0264 H         1 <0>         0.1500
     19 H3          3.3802    0.4966    0.1096 H         1 <0>         0.1500
     20 H4          0.3014   -2.6210    2.4409 H         1 <0>         0.1500
     21 H5          3.3095    0.4674    2.5782 H         1 <0>         0.1500
     22 H6          0.2735   -2.6140    4.4429 H         1 <0>         0.1500
     23 H7          0.5704   -1.7372   10.9534 H         1 <0>         0.0000
     24 H8         -0.6193   -1.3223    9.6775 H         1 <0>         0.0000
     25 H9         -0.0410   -3.0110    9.8492 H         1 <0>         0.0000
     26 H10         0.4776   -3.0282    7.2757 H         1 <0>         0.4200
@<TRIPOS>BOND
     1    1    2 ar
     2    1    3 ar
     3    2    4 ar
     4    3    5 ar
     5    4    7 ar
     6    5    7 ar
     7    6    8 2
     8    6   12 1
     9    7   12 1
    10    8   10 1
    11    8   13 1
    12    9   16 1
    13   10   11 2
    14   11   12 1
    15   13   16 1
    16   14   16 2
    17   15   16 2
    18    1   17 1
    19    2   18 1
    20    3   19 1
    21    4   20 1
    22    5   21 1
    23    6   22 1
    24    9   23 1
    25    9   24 1
    26    9   25 1
    27   13   26 1
