@<TRIPOS>MOLECULE
*****
   25    26     0     0     0
SMALL
USER_CHARGES

@<TRIPOS>ATOM
      1 C1          1.8857   -1.0384   -0.1125 C.ar      1 <0>        -0.1500
      2 C2          1.0232   -1.9147    0.5461 C.ar      1 <0>        -0.1500
      3 C3          2.7053   -0.1822    0.6231 C.ar      1 <0>        -0.1500
      4 C4          0.9801   -1.9348    1.9401 C.ar      1 <0>        -0.1500
      5 C5          2.6623   -0.2023    2.0171 C.ar      1 <0>        -0.1500
      6 C6          0.9732   -1.8921    4.8388 C.2       1 <0>        -0.3016
      7 C7          1.7997   -1.0786    2.6757 C.ar      1 <0>        -0.0230
      8 C8          1.3135   -1.5226    6.1158 C.2       1 <0>        -0.0788
      9 C9          2.5740   -2.7020    8.9780 C.3       1 <0>         0.1052
     10 N1          2.2677   -0.5444    6.0722 N.2       1 <0>        -0.2272
     11 N2          2.5339   -0.2903    4.7956 N.2       1 <0>        -0.4180
     12 N3          0.7878   -2.0429    7.2573 N.2       1 <0>        -0.2341
     13 N4          1.7565   -1.0993    4.0577 N.pl3     1 <0>         0.5926
     14 O1          0.3075   -1.8570    9.7875 O.2       1 <0>        -0.6500
     15 O2          1.8866   -0.2551    8.7622 O.2       1 <0>        -0.6500
     16 S1          1.2355   -1.5607    8.6997 S.o2      1 <0>         0.7349
     17 H1          1.9209   -1.0235   -1.1978 H         1 <0>         0.1500
     18 H2          0.3859   -2.5823   -0.0264 H         1 <0>         0.1500
     19 H3          3.3778    0.4989    0.1095 H         1 <0>         0.1500
     20 H4          0.3039   -2.6233    2.4410 H         1 <0>         0.1500
     21 H5          3.3071    0.4698    2.5782 H         1 <0>         0.1500
     22 H6          0.2747   -2.6148    4.4375 H         1 <0>         0.1500
     23 H7          3.0032   -2.4965    9.9599 H         1 <0>         0.0000
     24 H8          2.1748   -3.7167    8.9399 H         1 <0>         0.0000
     25 H9          3.3203   -2.5547    8.1959 H         1 <0>         0.0000
@<TRIPOS>BOND
     1    1    2 ar
     2    1    3 ar
     3    2    4 ar
     4    3    5 ar
     5    4    7 ar
     6    5    7 ar
     7    6    8 2
     8    6   13 1
     9    7   13 1
    10    8   10 1
    11    8   12 1
    12    9   16 1
    13   10   11 2
    14   11   13 1
    15   12   16 1
    16   14   16 2
    17   15   16 2
    18    1   17 1
    19    2   18 1
    20    3   19 1
    21    4   20 1
    22    5   21 1
    23    6   22 1
    24    9   23 1
    25    9   24 1
    26    9   25 1
