@<TRIPOS>MOLECULE
*****
   27    28     0     0     0
SMALL
USER_CHARGES

@<TRIPOS>ATOM
      1 C1          1.8875   -1.0354   -0.1124 C.ar      1 <0>        -0.1500
      2 C2          2.5083   -0.0241    0.6207 C.ar      1 <0>        -0.1500
      3 C3          1.2227   -2.0683    0.5486 C.ar      1 <0>        -0.1500
      4 C4          2.4645   -0.0457    2.0147 C.ar      1 <0>        -0.1500
      5 C5          1.1788   -2.0899    1.9426 C.ar      1 <0>        -0.1500
      6 C6          2.3222   -0.1716    4.9011 C.2       1 <0>        -0.3016
      7 C7          1.7997   -1.0786    2.6757 C.ar      1 <0>        -0.0230
      8 C8          2.0176   -0.6114    6.1669 C.2       1 <0>         0.4780
      9 C9          2.7229   -0.1685   10.0744 C.3       1 <0>         0.1052
     10 N1          1.1171   -2.0925    4.7180 N.2       1 <0>        -0.3790
     11 N2          1.7565   -1.0993    4.0577 N.pl3     1 <0>         0.5926
     12 N3          1.2936   -1.7681    5.9848 N.pl3     1 <0>         0.1780
     13 N4          2.3318   -0.0695    7.4120 N.pl3     1 <0>        -0.7030
     14 O1          0.3254   -0.0063    9.0777 O.2       1 <0>        -0.6500
     15 O2          1.5989   -2.1626    8.8064 O.2       1 <0>        -0.6500
     16 S1          1.5689   -0.7137    8.8352 S.o2      1 <0>         1.3328
     17 H1          1.9198   -1.0181   -1.1977 H         1 <0>         0.1500
     18 H2          3.0249    0.7810    0.1063 H         1 <0>         0.1500
     19 H3          0.7382   -2.8547   -0.0231 H         1 <0>         0.1500
     20 H4          2.9518    0.7492    2.5741 H         1 <0>         0.1500
     21 H5          0.6565   -2.9005    2.4450 H         1 <0>         0.1500
     22 H6          2.8702    0.6859    4.5349 H         1 <0>         0.1500
     23 H7          2.3678   -0.5078   11.0488 H         1 <0>         0.0000
     24 H8          3.6987   -0.6021    9.8508 H         1 <0>         0.0000
     25 H9          2.7721    0.9210   10.0435 H         1 <0>         0.0000
     26 H10         0.8932   -2.3799    6.6915 H         1 <0>         0.4500
     27 H11         2.4307    0.9731    7.4461 H         1 <0>         0.4200
@<TRIPOS>BOND
     1    1    2 ar
     2    1    3 ar
     3    2    4 ar
     4    3    5 ar
     5    4    7 ar
     6    5    7 ar
     7    6    8 2
     8    6   11 1
     9    7   11 1
    10    8   12 1
    11    8   13 1
    12    9   16 1
    13   10   11 1
    14   10   12 2
    15   13   16 1
    16   14   16 2
    17   15   16 2
    18    1   17 1
    19    2   18 1
    20    3   19 1
    21    4   20 1
    22    5   21 1
    23    6   22 1
    24    9   23 1
    25    9   24 1
    26    9   25 1
    27   12   26 1
    28   13   27 1
