@<TRIPOS>MOLECULE
*****
   33    35     0     0     0
SMALL
USER_CHARGES

@<TRIPOS>ATOM
      1 C1          1.8857   -1.0384   -0.1125 C.ar      1 <0>        -0.1500
      2 C2         -2.0477    2.2848    6.7963 C.ar      1 <0>        -0.1500
      3 C3          1.0218   -1.9134    0.5460 C.ar      1 <0>        -0.1500
      4 C4          2.7067   -0.1835    0.6231 C.ar      1 <0>        -0.1500
      5 C5         -2.6449    1.1682    7.3812 C.ar      1 <0>        -0.1500
      6 C6         -0.6580    2.4049    6.7811 C.ar      1 <0>        -0.1500
      7 C7          0.9788   -1.9335    1.9401 C.ar      1 <0>        -0.1500
      8 C8          2.6636   -0.2037    2.0171 C.ar      1 <0>        -0.1500
      9 C9         -1.8526    0.1717    7.9511 C.ar      1 <0>        -0.1500
     10 C10         0.1343    1.4083    7.3510 C.ar      1 <0>        -0.1500
     11 C11         0.9725   -1.8904    4.8397 C.2       1 <0>        -0.3016
     12 C12         1.7997   -1.0786    2.6757 C.ar      1 <0>        -0.0230
     13 C13        -0.4629    0.2918    7.9360 C.ar      1 <0>        -0.0090
     14 C14         1.3129   -1.5196    6.1163 C.2       1 <0>         0.3722
     15 N1          2.2680   -0.5422    6.0715 N.2       1 <0>        -0.2272
     16 N2          2.5345   -0.2900    4.7947 N.2       1 <0>        -0.4180
     17 N3          1.7565   -1.0993    4.0577 N.pl3     1 <0>         0.5926
     18 N4          0.7916   -2.0321    7.3106 N.pl3     1 <0>        -0.7030
     19 O1         -0.2738   -1.6342    9.6625 O.2       1 <0>        -0.6500
     20 O2          1.8034   -0.3674    9.0461 O.2       1 <0>        -0.6500
     21 S1          0.5420   -0.9714    8.6622 S.o2      1 <0>         1.4470
     22 H1          1.9209   -1.0235   -1.1978 H         1 <0>         0.1500
     23 H2         -2.6641    3.0615    6.3529 H         1 <0>         0.1500
     24 H3          0.3835   -2.5800   -0.0264 H         1 <0>         0.1500
     25 H4          3.3802    0.4966    0.1096 H         1 <0>         0.1500
     26 H5         -3.7268    1.0749    7.3941 H         1 <0>         0.1500
     27 H6         -0.1934    3.2746    6.3263 H         1 <0>         0.1500
     28 H7          0.3014   -2.6210    2.4409 H         1 <0>         0.1500
     29 H8          3.3095    0.4674    2.5782 H         1 <0>         0.1500
     30 H9         -2.3282   -0.6936    8.4050 H         1 <0>         0.1500
     31 H10         1.2158    1.5127    7.3348 H         1 <0>         0.1500
     32 H11         0.2735   -2.6140    4.4429 H         1 <0>         0.1500
     33 H12         0.0646   -2.7775    7.2227 H         1 <0>         0.4200
@<TRIPOS>BOND
     1    1    3 ar
     2    1    4 ar
     3    2    5 ar
     4    2    6 ar
     5    3    7 ar
     6    4    8 ar
     7    5    9 ar
     8    6   10 ar
     9    7   12 ar
    10    8   12 ar
    11    9   13 ar
    12   10   13 ar
    13   11   14 2
    14   11   17 1
    15   12   17 1
    16   13   21 1
    17   14   15 1
    18   14   18 1
    19   15   16 2
    20   16   17 1
    21   18   21 1
    22   19   21 2
    23   20   21 2
    24    1   22 1
    25    2   23 1
    26    3   24 1
    27    4   25 1
    28    5   26 1
    29    6   27 1
    30    7   28 1
    31    8   29 1
    32    9   30 1
    33   10   31 1
    34   11   32 1
    35   18   33 1
