@<TRIPOS>MOLECULE
*****
   32    34     0     0     0
SMALL
USER_CHARGES

@<TRIPOS>ATOM
      1 C1          1.8857   -1.0384   -0.1125 C.ar      1 <0>        -0.1500
      2 C2         -1.6212    1.8918    9.7110 C.ar      1 <0>        -0.1500
      3 C3          1.0232   -1.9147    0.5461 C.ar      1 <0>        -0.1500
      4 C4          2.7053   -0.1822    0.6231 C.ar      1 <0>        -0.1500
      5 C5         -1.9607    0.5833   10.0549 C.ar      1 <0>        -0.1500
      6 C6         -0.4151    2.1513    9.0603 C.ar      1 <0>        -0.1500
      7 C7          0.9801   -1.9348    1.9401 C.ar      1 <0>        -0.1500
      8 C8          2.6623   -0.2023    2.0171 C.ar      1 <0>        -0.1500
      9 C9         -1.0940   -0.4657    9.7481 C.ar      1 <0>        -0.1500
     10 C10         0.4517    1.1023    8.7535 C.ar      1 <0>        -0.1500
     11 C11         0.9732   -1.8921    4.8388 C.2       1 <0>        -0.3016
     12 C12         1.7997   -1.0786    2.6757 C.ar      1 <0>        -0.0230
     13 C13         0.1122   -0.2062    9.0974 C.ar      1 <0>        -0.0090
     14 C14         1.3135   -1.5226    6.1158 C.2       1 <0>        -0.0788
     15 N1          2.2677   -0.5444    6.0722 N.2       1 <0>        -0.2272
     16 N2          2.5339   -0.2903    4.7956 N.2       1 <0>        -0.4180
     17 N3          0.7878   -2.0429    7.2573 N.2       1 <0>        -0.2341
     18 N4          1.7565   -1.0993    4.0577 N.pl3     1 <0>         0.5926
     19 O1          2.5437   -0.9176    8.7726 O.2       1 <0>        -0.6500
     20 O2          0.9729   -2.5087    9.7864 O.2       1 <0>        -0.6500
     21 S1          1.2340   -1.5622    8.7040 S.o2      1 <0>         0.8491
     22 H1          1.9209   -1.0235   -1.1978 H         1 <0>         0.1500
     23 H2         -2.2954    2.7091    9.9502 H         1 <0>         0.1500
     24 H3          0.3859   -2.5823   -0.0264 H         1 <0>         0.1500
     25 H4          3.3778    0.4989    0.1095 H         1 <0>         0.1500
     26 H5         -2.8992    0.3809   10.5625 H         1 <0>         0.1500
     27 H6         -0.1508    3.1702    8.7933 H         1 <0>         0.1500
     28 H7          0.3039   -2.6233    2.4410 H         1 <0>         0.1500
     29 H8          3.3071    0.4698    2.5782 H         1 <0>         0.1500
     30 H9         -1.3678   -1.4812   10.0214 H         1 <0>         0.1500
     31 H10         1.3892    1.3161    8.2475 H         1 <0>         0.1500
     32 H11         0.2747   -2.6148    4.4375 H         1 <0>         0.1500
@<TRIPOS>BOND
     1    1    3 ar
     2    1    4 ar
     3    2    5 ar
     4    2    6 ar
     5    3    7 ar
     6    4    8 ar
     7    5    9 ar
     8    6   10 ar
     9    7   12 ar
    10    8   12 ar
    11    9   13 ar
    12   10   13 ar
    13   11   14 2
    14   11   18 1
    15   12   18 1
    16   13   21 1
    17   14   15 1
    18   14   17 1
    19   15   16 2
    20   16   18 1
    21   17   21 1
    22   19   21 2
    23   20   21 2
    24    1   22 1
    25    2   23 1
    26    3   24 1
    27    4   25 1
    28    5   26 1
    29    6   27 1
    30    7   28 1
    31    8   29 1
    32    9   30 1
    33   10   31 1
    34   11   32 1
