@<TRIPOS>MOLECULE
*****
   34    36     0     0     0
SMALL
USER_CHARGES

@<TRIPOS>ATOM
      1 C1          1.8875   -1.0354   -0.1124 C.ar      1 <0>        -0.1500
      2 C2         -2.4958    1.7392    6.7998 C.ar      1 <0>        -0.1500
      3 C3          2.5083   -0.0241    0.6207 C.ar      1 <0>        -0.1500
      4 C4          1.2227   -2.0683    0.5486 C.ar      1 <0>        -0.1500
      5 C5         -2.2888    0.3637    6.6962 C.ar      1 <0>        -0.1500
      6 C6         -1.5776    2.5328    7.4875 C.ar      1 <0>        -0.1500
      7 C7          2.4645   -0.0457    2.0147 C.ar      1 <0>        -0.1500
      8 C8          1.1788   -2.0899    1.9426 C.ar      1 <0>        -0.1500
      9 C9         -1.1637   -0.2182    7.2803 C.ar      1 <0>        -0.1500
     10 C10        -0.4526    1.9509    8.0717 C.ar      1 <0>        -0.1500
     11 C11         2.3222   -0.1716    4.9011 C.2       1 <0>        -0.3016
     12 C12         1.7997   -1.0786    2.6757 C.ar      1 <0>        -0.0230
     13 C13        -0.2456    0.5753    7.9681 C.ar      1 <0>        -0.0090
     14 C14         2.0176   -0.6114    6.1669 C.2       1 <0>         0.4780
     15 N1          1.1171   -2.0925    4.7180 N.2       1 <0>        -0.3790
     16 N2          1.7565   -1.0993    4.0577 N.pl3     1 <0>         0.5926
     17 N3          1.2936   -1.7681    5.9848 N.pl3     1 <0>         0.1780
     18 N4          2.3318   -0.0695    7.4120 N.pl3     1 <0>        -0.7030
     19 O1          0.8446   -1.5506    8.9769 O.2       1 <0>        -0.6500
     20 O2          1.6070    0.6944    9.8003 O.2       1 <0>        -0.6500
     21 S1          1.1801   -0.1640    8.7120 S.o2      1 <0>         1.4470
     22 H1          1.9198   -1.0181   -1.1977 H         1 <0>         0.1500
     23 H2         -3.3719    2.1929    6.3457 H         1 <0>         0.1500
     24 H3          3.0249    0.7810    0.1063 H         1 <0>         0.1500
     25 H4          0.7382   -2.8547   -0.0231 H         1 <0>         0.1500
     26 H5         -3.0039   -0.2547    6.1617 H         1 <0>         0.1500
     27 H6         -1.7395    3.6036    7.5685 H         1 <0>         0.1500
     28 H7          2.9518    0.7492    2.5741 H         1 <0>         0.1500
     29 H8          0.6565   -2.9005    2.4450 H         1 <0>         0.1500
     30 H9         -1.0126   -1.2910    7.1944 H         1 <0>         0.1500
     31 H10         0.2554    2.5784    8.6061 H         1 <0>         0.1500
     32 H11         2.8702    0.6859    4.5349 H         1 <0>         0.1500
     33 H12         0.8932   -2.3799    6.6915 H         1 <0>         0.4500
     34 H13         2.8901    0.8172    7.4169 H         1 <0>         0.4200
@<TRIPOS>BOND
     1    1    3 ar
     2    1    4 ar
     3    2    5 ar
     4    2    6 ar
     5    3    7 ar
     6    4    8 ar
     7    5    9 ar
     8    6   10 ar
     9    7   12 ar
    10    8   12 ar
    11    9   13 ar
    12   10   13 ar
    13   11   14 2
    14   11   16 1
    15   12   16 1
    16   13   21 1
    17   14   17 1
    18   14   18 1
    19   15   16 1
    20   15   17 2
    21   18   21 1
    22   19   21 2
    23   20   21 2
    24    1   22 1
    25    2   23 1
    26    3   24 1
    27    4   25 1
    28    5   26 1
    29    6   27 1
    30    7   28 1
    31    8   29 1
    32    9   30 1
    33   10   31 1
    34   11   32 1
    35   17   33 1
    36   18   34 1
