@<TRIPOS>MOLECULE
*****
   30    31     0     0     0
SMALL
USER_CHARGES

@<TRIPOS>ATOM
      1 C1         -5.8652   -7.1827    1.8988 C.ar      1 <0>        -0.1500
      2 C2         -5.1005   -6.8546    0.7794 C.ar      1 <0>        -0.1500
      3 C3         -5.8023   -6.3883    3.0437 C.ar      1 <0>        -0.1500
      4 C4         -4.2729   -5.7321    0.8047 C.ar      1 <0>        -0.1500
      5 C5         -4.9747   -5.2658    3.0690 C.ar      1 <0>        -0.1500
      6 C6         -2.5846   -3.3724    0.9681 C.2       1 <0>        -0.3016
      7 C7         -4.2100   -4.9376    1.9495 C.ar      1 <0>        -0.0230
      8 C8         -1.9959   -2.2522    1.4988 C.2       1 <0>        -0.0788
      9 C9         -1.8193    1.2991   -0.3762 C.3       1 <0>         0.3557
     10 C10        -2.9086    1.0990    1.8274 C.3       1 <0>         0.3557
     11 N1         -2.4455   -2.0578    2.7753 N.2       1 <0>        -0.2272
     12 N2         -3.3033   -3.0320    3.0588 N.2       1 <0>        -0.4180
     13 N3         -1.1036   -1.4540    0.8640 N.2       1 <0>        -0.2341
     14 N4         -3.3852   -3.8192    1.9740 N.pl3     1 <0>         0.5926
     15 N5         -1.6208    1.0778    1.0820 N.pl3     1 <0>        -0.8494
     16 O1          0.8012    0.2783    0.9519 O.2       1 <0>        -0.6500
     17 O2         -0.4846   -0.1610    3.0047 O.2       1 <0>        -0.6500
     18 S1         -0.4595   -0.1670    1.5430 S.o2      1 <0>         0.9781
     19 H1         -6.5110   -8.0556    1.8790 H         1 <0>         0.1500
     20 H2         -5.1503   -7.4722   -0.1126 H         1 <0>         0.1500
     21 H3         -6.3992   -6.6437    3.9145 H         1 <0>         0.1500
     22 H4         -3.6827   -5.4870   -0.0750 H         1 <0>         0.1500
     23 H5         -4.9358   -4.6548    3.9676 H         1 <0>         0.1500
     24 H6         -2.5064   -3.8669    0.0086 H         1 <0>         0.1500
     25 H7         -0.8455    1.2758   -0.8871 H         1 <0>         0.0000
     26 H8         -2.4654    0.5069   -0.7825 H         1 <0>         0.0000
     27 H9         -2.2943    2.2781   -0.5370 H         1 <0>         0.0000
     28 H10        -2.7163    0.9321    2.8975 H         1 <0>         0.0000
     29 H11        -3.3954    2.0759    1.6904 H         1 <0>         0.0000
     30 H12        -3.5665    0.3047    1.4450 H         1 <0>         0.0000
@<TRIPOS>BOND
     1    1    2 ar
     2    1    3 ar
     3    2    4 ar
     4    3    5 ar
     5    4    7 ar
     6    5    7 ar
     7    6    8 2
     8    6   14 1
     9    7   14 1
    10    8   11 1
    11    8   13 1
    12    9   15 1
    13   10   15 1
    14   11   12 2
    15   12   14 1
    16   13   18 1
    17   15   18 1
    18   16   18 2
    19   17   18 2
    20    1   19 1
    21    2   20 1
    22    3   21 1
    23    4   22 1
    24    5   23 1
    25    6   24 1
    26    9   25 1
    27    9   26 1
    28    9   27 1
    29   10   28 1
    30   10   29 1
    31   10   30 1
