@<TRIPOS>MOLECULE
*****
   31    32     0     0     0
SMALL
USER_CHARGES

@<TRIPOS>ATOM
      1 C1         -7.3759   -7.1899   -1.9458 C.ar      1 <0>        -0.1500
      2 C2         -6.4266   -7.3418   -0.9352 C.ar      1 <0>        -0.1500
      3 C3         -7.5449   -5.9506   -2.5635 C.ar      1 <0>        -0.1500
      4 C4         -5.6463   -6.2545   -0.5421 C.ar      1 <0>        -0.1500
      5 C5         -6.7646   -4.8633   -2.1703 C.ar      1 <0>        -0.1500
      6 C6         -4.0766   -3.9222    0.1961 C.2       1 <0>        -0.3016
      7 C7         -5.8153   -5.0152   -1.1597 C.ar      1 <0>        -0.0230
      8 C8         -3.6231   -2.6271    0.1846 C.2       1 <0>         0.3722
      9 C9         -0.4360   -0.7607    2.9612 C.3       1 <0>         0.3557
     10 C10         0.4291   -0.4398    0.6742 C.3       1 <0>         0.3557
     11 N1         -4.3033   -1.9105   -0.7606 N.2       1 <0>        -0.2272
     12 N2         -5.1749   -2.7268   -1.3427 N.2       1 <0>        -0.4180
     13 N3         -5.0375   -3.9325   -0.7675 N.pl3     1 <0>         0.5926
     14 N4         -2.5951   -2.0615    1.0175 N.pl3     1 <0>        -0.7030
     15 N5         -0.7093   -0.2357    1.6011 N.pl3     1 <0>        -0.8494
     16 O1         -2.3562    0.1424   -0.3609 O.2       1 <0>        -0.6500
     17 O2         -3.2108    0.2179    1.9895 O.2       1 <0>        -0.6500
     18 S1         -2.3196   -0.3625    0.9988 S.o2      1 <0>         1.5760
     19 H1         -7.9824   -8.0366   -2.2536 H         1 <0>         0.1500
     20 H2         -6.2939   -8.3069   -0.4552 H         1 <0>         0.1500
     21 H3         -8.2833   -5.8335   -3.3514 H         1 <0>         0.1500
     22 H4         -4.9094   -6.3867    0.2464 H         1 <0>         0.1500
     23 H5         -6.9061   -3.9032   -2.6606 H         1 <0>         0.1500
     24 H6         -3.8093   -4.7926    0.7797 H         1 <0>         0.1500
     25 H7         -1.3099   -0.5839    3.6055 H         1 <0>         0.0000
     26 H8         -0.2355   -1.8408    2.9038 H         1 <0>         0.0000
     27 H9          0.4404   -0.2470    3.3831 H         1 <0>         0.0000
     28 H10         0.1739   -0.0339   -0.3158 H         1 <0>         0.0000
     29 H11         1.3173    0.0783    1.0650 H         1 <0>         0.0000
     30 H12         0.6414   -1.5155    0.5857 H         1 <0>         0.0000
     31 H13        -2.5213   -2.5047    1.9431 H         1 <0>         0.4200
@<TRIPOS>BOND
     1    1    2 ar
     2    1    3 ar
     3    2    4 ar
     4    3    5 ar
     5    4    7 ar
     6    5    7 ar
     7    6    8 2
     8    6   13 1
     9    7   13 1
    10    8   11 1
    11    8   14 1
    12    9   15 1
    13   10   15 1
    14   11   12 2
    15   12   13 1
    16   14   18 1
    17   15   18 1
    18   16   18 2
    19   17   18 2
    20    1   19 1
    21    2   20 1
    22    3   21 1
    23    4   22 1
    24    5   23 1
    25    6   24 1
    26    9   25 1
    27    9   26 1
    28    9   27 1
    29   10   28 1
    30   10   29 1
    31   10   30 1
    32   14   31 1
