@<TRIPOS>MOLECULE
*****
   32    33     0     0     0
SMALL
USER_CHARGES

@<TRIPOS>ATOM
      1 C1         -1.1775   -7.2446   -4.4985 C.ar      1 <0>        -0.1500
      2 C2         -1.9642   -6.0940   -4.5518 C.ar      1 <0>        -0.1500
      3 C3         -0.3363   -7.4645   -3.4077 C.ar      1 <0>        -0.1500
      4 C4         -1.9096   -5.1632   -3.5144 C.ar      1 <0>        -0.1500
      5 C5         -0.2818   -6.5336   -2.3703 C.ar      1 <0>        -0.1500
      6 C6         -1.7161   -3.2926   -1.2980 C.2       1 <0>        -0.3016
      7 C7         -1.0684   -5.3830   -2.4236 C.ar      1 <0>        -0.0230
      8 C8         -1.3008   -2.7603   -0.1034 C.2       1 <0>         0.3722
      9 C9         -3.0544   -2.5841    3.1574 C.3       1 <0>         0.5030
     10 C10        -1.0696   -1.9581    4.5310 C.3       1 <0>         0.5030
     11 N1         -0.3858   -3.5937    0.4777 N.2       1 <0>        -0.2272
     12 N2         -0.2163   -4.6378   -0.3263 N.2       1 <0>        -0.4180
     13 N3         -1.0147   -4.4552   -1.3905 N.pl3     1 <0>         0.5926
     14 N4         -1.7318   -1.5170    0.4914 N.pl3     1 <0>        -0.7030
     15 N5         -1.5846   -2.2874    3.1615 N.4       1 <0>        -0.8290
     16 O1          0.2593   -0.9167    2.0364 O.2       1 <0>        -0.6500
     17 O2         -1.9874    0.1321    2.4353 O.2       1 <0>        -0.6500
     18 S1         -1.1883   -1.0119    2.0335 S.o2      1 <0>         1.8110
     19 H1         -1.2209   -7.9706   -5.3050 H         1 <0>         0.1500
     20 H2         -2.6202   -5.9233   -5.4003 H         1 <0>         0.1500
     21 H3          0.2749   -8.3615   -3.3662 H         1 <0>         0.1500
     22 H4         -2.5286   -4.2709   -3.5680 H         1 <0>         0.1500
     23 H5          0.3777   -6.7178   -1.5256 H         1 <0>         0.1500
     24 H6         -2.4162   -2.9582   -2.0514 H         1 <0>         0.1500
     25 H7         -3.5761   -1.6917    3.5080 H         1 <0>         0.0000
     26 H8         -3.3426   -2.8307    2.1338 H         1 <0>         0.0000
     27 H9         -3.2267   -3.4281    3.8280 H         1 <0>         0.0000
     28 H10        -1.5956   -1.0678    4.8804 H         1 <0>         0.0000
     29 H11        -1.2721   -2.8133    5.1787 H         1 <0>         0.0000
     30 H12         0.0031   -1.7732    4.4491 H         1 <0>         0.0000
     31 H13        -2.6958   -1.2518    0.2493 H         1 <0>         0.4200
     32 H14        -1.0893   -3.1264    2.8316 H         1 <0>         0.4500
@<TRIPOS>BOND
     1    1    2 ar
     2    1    3 ar
     3    2    4 ar
     4    3    5 ar
     5    4    7 ar
     6    5    7 ar
     7    6    8 2
     8    6   13 1
     9    7   13 1
    10    8   11 1
    11    8   14 1
    12    9   15 1
    13   10   15 1
    14   11   12 2
    15   12   13 1
    16   14   18 1
    17   15   18 1
    18   16   18 2
    19   17   18 2
    20    1   19 1
    21    2   20 1
    22    3   21 1
    23    4   22 1
    24    5   23 1
    25    6   24 1
    26    9   25 1
    27    9   26 1
    28    9   27 1
    29   10   28 1
    30   10   29 1
    31   10   30 1
    32   14   31 1
    33   15   32 1
