@<TRIPOS>MOLECULE
*****
   32    33     0     0     0
SMALL
USER_CHARGES

@<TRIPOS>ATOM
      1 C1         -6.2298   -4.9352   -5.0697 C.ar      1 <0>        -0.1500
      2 C2         -4.9186   -4.4754   -4.9481 C.ar      1 <0>        -0.1500
      3 C3         -7.0842   -4.9063   -3.9674 C.ar      1 <0>        -0.1500
      4 C4         -4.4616   -3.9867   -3.7241 C.ar      1 <0>        -0.1500
      5 C5         -6.6272   -4.4176   -2.7435 C.ar      1 <0>        -0.1500
      6 C6         -3.5979   -2.9876   -1.1411 C.2       1 <0>        -0.3016
      7 C7         -5.3159   -3.9578   -2.6218 C.ar      1 <0>        -0.0230
      8 C8         -3.6231   -2.6271    0.1846 C.2       1 <0>         0.4780
      9 C9         -0.2841   -0.9594    2.9087 C.3       1 <0>         0.3557
     10 C10        -2.0765    0.7333    2.9704 C.3       1 <0>         0.3557
     11 N1         -5.6721   -3.4337   -0.3200 N.2       1 <0>        -0.3790
     12 N2         -4.8594   -3.4700   -1.4015 N.pl3     1 <0>         0.5926
     13 N3         -4.8968   -2.9211    0.6166 N.pl3     1 <0>         0.1780
     14 N4         -2.5951   -2.0615    1.0175 N.pl3     1 <0>        -0.7030
     15 N5         -1.7214   -0.6930    3.1608 N.pl3     1 <0>        -0.8494
     16 O1         -4.1976   -1.4276    2.9782 O.2       1 <0>        -0.6500
     17 O2         -2.4257   -3.1617    3.3154 O.2       1 <0>        -0.6500
     18 S1         -2.8557   -1.9111    2.7122 S.o2      1 <0>         1.5760
     19 H1         -6.5867   -5.3142   -6.0228 H         1 <0>         0.1500
     20 H2         -4.2537   -4.4966   -5.8065 H         1 <0>         0.1500
     21 H3         -8.1056   -5.2632   -4.0634 H         1 <0>         0.1500
     22 H4         -3.4375   -3.6305   -3.6431 H         1 <0>         0.1500
     23 H5         -7.3039   -4.4000   -1.8926 H         1 <0>         0.1500
     24 H6         -2.8258   -2.9472   -1.8974 H         1 <0>         0.1500
     25 H7         -0.0762   -2.0284    3.0636 H         1 <0>         0.0000
     26 H8         -0.0366   -0.6842    1.8728 H         1 <0>         0.0000
     27 H9          0.3264   -0.3629    3.6025 H         1 <0>         0.0000
     28 H10        -3.1491    0.8744    3.1693 H         1 <0>         0.0000
     29 H11        -1.4903    1.3529    3.6650 H         1 <0>         0.0000
     30 H12        -1.8533    1.0315    1.9354 H         1 <0>         0.0000
     31 H13        -5.2942   -2.7926    1.5437 H         1 <0>         0.4500
     32 H14        -1.6424   -2.3396    0.7462 H         1 <0>         0.4200
@<TRIPOS>BOND
     1    1    2 ar
     2    1    3 ar
     3    2    4 ar
     4    3    5 ar
     5    4    7 ar
     6    5    7 ar
     7    6    8 2
     8    6   12 1
     9    7   12 1
    10    8   13 1
    11    8   14 1
    12    9   15 1
    13   10   15 1
    14   11   12 1
    15   11   13 2
    16   14   18 1
    17   15   18 1
    18   16   18 2
    19   17   18 2
    20    1   19 1
    21    2   20 1
    22    3   21 1
    23    4   22 1
    24    5   23 1
    25    6   24 1
    26    9   25 1
    27    9   26 1
    28    9   27 1
    29   10   28 1
    30   10   29 1
    31   10   30 1
    32   13   31 1
    33   14   32 1
