@<TRIPOS>MOLECULE
*****
   33    34     0     0     0
SMALL
USER_CHARGES

@<TRIPOS>ATOM
      1 C1          2.6209   -6.7823   -2.9625 C.ar      1 <0>        -0.1500
      2 C2          2.9209   -5.4658   -2.6126 C.ar      1 <0>        -0.1500
      3 C3          1.3604   -7.3090   -2.6804 C.ar      1 <0>        -0.1500
      4 C4          1.9606   -4.6760   -1.9806 C.ar      1 <0>        -0.1500
      5 C5          0.4000   -6.5191   -2.0484 C.ar      1 <0>        -0.1500
      6 C6         -0.0978   -3.1072   -0.6699 C.2       1 <0>        -0.3016
      7 C7          0.7001   -5.2026   -1.6985 C.ar      1 <0>        -0.0230
      8 C8         -1.3008   -2.7603   -0.1034 C.2       1 <0>         0.4780
      9 C9         -2.8248   -0.0074   -2.0624 C.3       1 <0>         0.5030
     10 C10        -5.1987   -0.5102   -1.4882 C.3       1 <0>         0.5030
     11 N1         -1.4859   -4.9060   -0.7855 N.2       1 <0>        -0.3790
     12 N2         -0.2573   -4.4141   -1.0682 N.pl3     1 <0>         0.5926
     13 N3         -2.0879   -3.8851   -0.2055 N.pl3     1 <0>         0.1780
     14 N4         -1.7318   -1.5170    0.4914 N.pl3     1 <0>        -0.7030
     15 N5         -3.7625   -0.9034   -1.3099 N.4       1 <0>        -0.8290
     16 O1         -4.2385   -1.9651    0.9685 O.2       1 <0>        -0.6500
     17 O2         -3.3936    0.3974    0.8616 O.2       1 <0>        -0.6500
     18 S1         -3.3516   -0.9746    0.3879 S.o2      1 <0>         1.8110
     19 H1          3.3676   -7.3972   -3.4561 H         1 <0>         0.1500
     20 H2          3.9018   -5.0552   -2.8334 H         1 <0>         0.1500
     21 H3          1.1271   -8.3338   -2.9544 H         1 <0>         0.1500
     22 H4          2.2071   -3.6511   -1.7140 H         1 <0>         0.1500
     23 H5         -0.5788   -6.9419   -1.8351 H         1 <0>         0.1500
     24 H6          0.8251   -2.5641   -0.8212 H         1 <0>         0.1500
     25 H7         -2.9475    1.0055   -1.6745 H         1 <0>         0.0000
     26 H8         -1.8092   -0.3713   -1.8960 H         1 <0>         0.0000
     27 H9         -3.0914   -0.0575   -3.1199 H         1 <0>         0.0000
     28 H10        -5.3175    0.5042   -1.1029 H         1 <0>         0.0000
     29 H11        -5.4274   -0.5543   -2.5547 H         1 <0>         0.0000
     30 H12        -5.8111   -1.2177   -0.9258 H         1 <0>         0.0000
     31 H13        -3.0477   -4.0141    0.1047 H         1 <0>         0.4500
     32 H14        -1.0135   -0.7806    0.4835 H         1 <0>         0.4200
     33 H15        -3.6498   -1.8592   -1.6728 H         1 <0>         0.4500
@<TRIPOS>BOND
     1    1    2 ar
     2    1    3 ar
     3    2    4 ar
     4    3    5 ar
     5    4    7 ar
     6    5    7 ar
     7    6    8 2
     8    6   12 1
     9    7   12 1
    10    8   13 1
    11    8   14 1
    12    9   15 1
    13   10   15 1
    14   11   12 1
    15   11   13 2
    16   14   18 1
    17   15   18 1
    18   16   18 2
    19   17   18 2
    20    1   19 1
    21    2   20 1
    22    3   21 1
    23    4   22 1
    24    5   23 1
    25    6   24 1
    26    9   25 1
    27    9   26 1
    28    9   27 1
    29   10   28 1
    30   10   29 1
    31   10   30 1
    32   13   31 1
    33   14   32 1
    34   15   33 1
