Cc1nc2ccccc2n1CCC(=O)NCC(C)C#N
     RDKit          3D

 38 39  0  0  0  0  0  0  0  0999 V2000
  -18.2428   12.8456   23.3646 C   0  0  0  0  0  0  0  0  0  0  0  0
  -19.2822   12.6891   24.4318 C   0  0  0  0  0  0  0  0  0  0  0  0
  -20.4923   12.1272   24.1789 N   0  0  0  0  0  0  0  0  0  0  0  0
  -21.1285   12.2304   25.3581 C   0  0  0  0  0  0  0  0  0  0  0  0
  -22.4470   11.8804   25.6371 C   0  0  0  0  0  0  0  0  0  0  0  0
  -22.9324   12.1342   26.9327 C   0  0  0  0  0  0  0  0  0  0  0  0
  -22.0952   12.7208   27.9076 C   0  0  0  0  0  0  0  0  0  0  0  0
  -20.7724   13.0799   27.5890 C   0  0  0  0  0  0  0  0  0  0  0  0
  -20.3246   12.8238   26.2888 C   0  0  0  0  0  0  0  0  0  0  0  0
  -19.1499   13.1400   25.7118 N   0  0  0  0  0  0  0  0  0  0  0  0
  -18.1285   14.0614   26.2226 C   0  0  0  0  0  0  0  0  0  0  0  0
  -18.6432   15.4921   26.2781 C   0  0  0  0  0  0  0  0  0  0  0  0
  -17.5857   16.4221   26.7960 C   0  0  0  0  0  0  0  0  0  0  0  0
  -17.3698   16.4937   28.0376 O   0  0  0  0  0  0  0  0  0  0  0  0
  -16.8469   17.2463   25.8877 N   0  0  0  0  0  0  0  0  0  0  0  0
  -15.8165   18.1718   26.3681 C   0  0  0  0  0  0  0  0  0  0  0  0
  -15.6203   19.3816   25.4334 C   0  0  0  0  0  0  0  0  0  0  0  0
  -14.6691   20.4243   26.0307 C   0  0  0  0  0  0  0  0  0  0  0  0
  -15.1490   18.9541   24.1058 C   0  0  0  0  0  0  0  0  0  0  0  0
  -14.7785   18.6179   23.0622 N   0  0  0  0  0  0  0  0  0  0  0  0
  -17.3456   12.2460   23.6154 H   0  0  0  0  0  0  0  0  0  0  0  0
  -18.6390   12.4837   22.3924 H   0  0  0  0  0  0  0  0  0  0  0  0
  -17.9645   13.9136   23.2539 H   0  0  0  0  0  0  0  0  0  0  0  0
  -23.0805   11.4348   24.8812 H   0  0  0  0  0  0  0  0  0  0  0  0
  -23.9518   11.8735   27.1855 H   0  0  0  0  0  0  0  0  0  0  0  0
  -22.4773   12.9061   28.9030 H   0  0  0  0  0  0  0  0  0  0  0  0
  -20.1366   13.5397   28.3329 H   0  0  0  0  0  0  0  0  0  0  0  0
  -17.2175   14.0281   25.5886 H   0  0  0  0  0  0  0  0  0  0  0  0
  -17.8169   13.7283   27.2363 H   0  0  0  0  0  0  0  0  0  0  0  0
  -19.5245   15.5642   26.9451 H   0  0  0  0  0  0  0  0  0  0  0  0
  -18.9665   15.7972   25.2596 H   0  0  0  0  0  0  0  0  0  0  0  0
  -17.0620   17.1817   24.8674 H   0  0  0  0  0  0  0  0  0  0  0  0
  -14.8513   17.6280   26.4645 H   0  0  0  0  0  0  0  0  0  0  0  0
  -16.0995   18.5361   27.3803 H   0  0  0  0  0  0  0  0  0  0  0  0
  -16.6107   19.8670   25.2953 H   0  0  0  0  0  0  0  0  0  0  0  0
  -15.0364   20.7490   27.0274 H   0  0  0  0  0  0  0  0  0  0  0  0
  -14.6247   21.3185   25.3724 H   0  0  0  0  0  0  0  0  0  0  0  0
  -13.6415   20.0189   26.1431 H   0  0  0  0  0  0  0  0  0  0  0  0
  1  2  1  0
  2  3  2  0
  3  4  1  0
  4  5  2  0
  5  6  1  0
  6  7  2  0
  7  8  1  0
  8  9  2  0
  9 10  1  0
 10 11  1  0
 11 12  1  0
 12 13  1  0
 13 14  2  0
 13 15  1  0
 15 16  1  0
 16 17  1  0
 17 18  1  0
 17 19  1  0
 19 20  3  0
 10  2  1  0
  9  4  1  0
  1 21  1  0
  1 22  1  0
  1 23  1  0
  5 24  1  0
  6 25  1  0
  7 26  1  0
  8 27  1  0
 11 28  1  0
 11 29  1  0
 12 30  1  0
 12 31  1  0
 15 32  1  0
 16 33  1  0
 16 34  1  0
 17 35  1  0
 18 36  1  0
 18 37  1  0
 18 38  1  0
M  END
>  <CHROM.1>  (1) 
97.04309749,-179.73565591,-79.67214741,-152.85958487,172.95560404,2.63524921
-0.62417057,-2.16418043

>  <Name>  (1) 
Cc1nc2ccccc2n1CCC(=O)NCC(C)C#N

>  <RI>  (1) 
3.89511e+07

>  <Rbt.Current_Directory>  (1) 
/data/out

>  <Rbt.Executable>  (1) 
rbdock ($Id: //depot/dev/client3/rdock/2013.1/src/exe/rbdock.cxx#4 $)

>  <Rbt.Library>  (1) 
libRbt.so (2013.1, Build901 2013/11/27)

>  <Rbt.Parameter_File>  (1) 
/python_libraries/phenodiscovery/docking/templates/RDOCK_TETHER.conf

>  <Rbt.Receptor>  (1) 
/data/out/rdock-opt/grid/rdock-grid.prm

>  <SCORE>  (1) 
-17.6946

>  <SCORE.INTER>  (1) 
-17.1834

>  <SCORE.INTER.CONST>  (1) 
1

>  <SCORE.INTER.POLAR>  (1) 
-2.0563

>  <SCORE.INTER.REPUL>  (1) 
0.233085

>  <SCORE.INTER.ROT>  (1) 
5

>  <SCORE.INTER.VDW>  (1) 
-21.7574

>  <SCORE.INTER.norm>  (1) 
-0.859168

>  <SCORE.INTRA>  (1) 
-0.51121

>  <SCORE.INTRA.DIHEDRAL>  (1) 
1.05209

>  <SCORE.INTRA.DIHEDRAL.0>  (1) 
5.80116

>  <SCORE.INTRA.POLAR>  (1) 
0

>  <SCORE.INTRA.POLAR.0>  (1) 
0

>  <SCORE.INTRA.REPUL>  (1) 
0

>  <SCORE.INTRA.REPUL.0>  (1) 
0

>  <SCORE.INTRA.VDW>  (1) 
-1.03726

>  <SCORE.INTRA.VDW.0>  (1) 
-0.493491

>  <SCORE.INTRA.norm>  (1) 
-0.0255605

>  <SCORE.RESTR>  (1) 
0

>  <SCORE.RESTR.CAVITY>  (1) 
0

>  <SCORE.RESTR.norm>  (1) 
0

>  <SCORE.SYSTEM>  (1) 
0

>  <SCORE.SYSTEM.CONST>  (1) 
0

>  <SCORE.SYSTEM.DIHEDRAL>  (1) 
0

>  <SCORE.SYSTEM.norm>  (1) 
0

>  <SCORE.heavy>  (1) 
20

>  <SCORE.norm>  (1) 
-0.884728

>  <TETHERED ATOMS>  (1) 
6,11,9,14,13,12,10,15,5,8,2,7,1,3,4

>  <skeledock_score>  (1) 
115

$$$$
