CCn1cc(NC(=O)[C@@H]2C[C@H](N)C2)cn1
     RDKit          3D

 31 32  0  0  0  0  0  0  0  0999 V2000
  -20.5440   13.3404   27.7411 C   0  0  0  0  0  0  0  0  0  0  0  0
  -19.0785   12.9778   27.5277 C   0  0  0  0  0  0  0  0  0  0  0  0
  -18.4086   14.0075   26.7380 N   0  0  0  0  0  0  0  0  0  0  0  0
  -17.6466   15.0103   27.2203 C   0  0  0  0  0  0  0  0  0  0  0  0
  -17.2163   15.7541   26.1384 C   0  0  0  0  0  0  0  0  0  0  0  0
  -16.4410   16.9617   26.1269 N   0  0  0  0  0  0  0  0  0  0  0  0
  -15.9111   17.6208   27.2878 C   0  0  0  0  0  0  0  0  0  0  0  0
  -16.0437   17.1111   28.4331 O   0  0  0  0  0  0  0  0  0  0  0  0
  -15.2495   18.9690   27.1282 C   0  0  0  0  0  0  0  0  0  0  0  0
  -16.0240   19.9294   26.2225 C   0  0  0  0  0  0  0  0  0  0  0  0
  -14.8199   20.0225   25.2909 C   0  0  0  0  0  0  0  0  0  0  0  0
  -15.1096   19.4881   23.9627 N   0  0  0  0  0  0  0  0  0  0  0  0
  -14.0633   19.0221   26.1606 C   0  0  0  0  0  0  0  0  0  0  0  0
  -17.7639   15.1509   25.0250 C   0  0  0  0  0  0  0  0  0  0  0  0
  -18.4820   14.0814   25.4167 N   0  0  0  0  0  0  0  0  0  0  0  0
  -21.0722   13.3995   26.7659 H   0  0  0  0  0  0  0  0  0  0  0  0
  -20.6220   14.3195   28.2600 H   0  0  0  0  0  0  0  0  0  0  0  0
  -21.0336   12.5634   28.3651 H   0  0  0  0  0  0  0  0  0  0  0  0
  -19.0095   12.0042   26.9969 H   0  0  0  0  0  0  0  0  0  0  0  0
  -18.5838   12.8692   28.5178 H   0  0  0  0  0  0  0  0  0  0  0  0
  -17.4584   15.1908   28.2696 H   0  0  0  0  0  0  0  0  0  0  0  0
  -16.2313   17.3788   25.1920 H   0  0  0  0  0  0  0  0  0  0  0  0
  -15.0060   19.4280   28.1119 H   0  0  0  0  0  0  0  0  0  0  0  0
  -16.9171   19.4756   25.7362 H   0  0  0  0  0  0  0  0  0  0  0  0
  -16.2421   20.8972   26.7243 H   0  0  0  0  0  0  0  0  0  0  0  0
  -14.3532   21.0335   25.2645 H   0  0  0  0  0  0  0  0  0  0  0  0
  -14.2264   19.5328   23.4047 H   0  0  0  0  0  0  0  0  0  0  0  0
  -15.7841   20.1396   23.5003 H   0  0  0  0  0  0  0  0  0  0  0  0
  -13.1614   19.4743   26.6276 H   0  0  0  0  0  0  0  0  0  0  0  0
  -13.8485   18.0653   25.6354 H   0  0  0  0  0  0  0  0  0  0  0  0
  -17.6537   15.4714   23.9977 H   0  0  0  0  0  0  0  0  0  0  0  0
  1  2  1  0
  2  3  1  0
  3  4  1  0
  4  5  2  0
  5  6  1  0
  6  7  1  0
  7  8  2  0
  7  9  1  0
  9 10  1  0
 10 11  1  0
 11 12  1  0
 11 13  1  0
  5 14  1  0
 14 15  2  0
 15  3  1  0
 13  9  1  0
  1 16  1  0
  1 17  1  0
  1 18  1  0
  2 19  1  0
  2 20  1  0
  4 21  1  0
  6 22  1  0
  9 23  1  0
 10 24  1  0
 10 25  1  0
 11 26  1  0
 12 27  1  0
 12 28  1  0
 13 29  1  0
 13 30  1  0
 14 31  1  0
M  END
>  <CHROM.1>  (1) 
98.37668742,2.28026757,44.41607207,-176.61670373,-0.10077013,0.94670629,1.60902506

>  <Name>  (1) 
CCn1cc(NC(=O)[C@@H]2C[C@H](N)C2)cn1

>  <RI>  (1) 
3.65077e+07

>  <Rbt.Current_Directory>  (1) 
/data/out

>  <Rbt.Executable>  (1) 
rbdock ($Id: //depot/dev/client3/rdock/2013.1/src/exe/rbdock.cxx#4 $)

>  <Rbt.Library>  (1) 
libRbt.so (2013.1, Build901 2013/11/27)

>  <Rbt.Parameter_File>  (1) 
/python_libraries/phenodiscovery/docking/templates/RDOCK_TETHER.conf

>  <Rbt.Receptor>  (1) 
/data/out/rdock-opt/grid/rdock-grid.prm

>  <SCORE>  (1) 
-16.0233

>  <SCORE.INTER>  (1) 
-14.4933

>  <SCORE.INTER.CONST>  (1) 
1

>  <SCORE.INTER.POLAR>  (1) 
-1.95892

>  <SCORE.INTER.REPUL>  (1) 
0.0220267

>  <SCORE.INTER.ROT>  (1) 
4

>  <SCORE.INTER.VDW>  (1) 
-17.3431

>  <SCORE.INTER.norm>  (1) 
-0.966218

>  <SCORE.INTRA>  (1) 
-1.53001

>  <SCORE.INTRA.DIHEDRAL>  (1) 
-3.10928

>  <SCORE.INTRA.DIHEDRAL.0>  (1) 
6.56302

>  <SCORE.INTRA.POLAR>  (1) 
0

>  <SCORE.INTRA.POLAR.0>  (1) 
0

>  <SCORE.INTRA.REPUL>  (1) 
0

>  <SCORE.INTRA.REPUL.0>  (1) 
0

>  <SCORE.INTRA.VDW>  (1) 
0.0246353

>  <SCORE.INTRA.VDW.0>  (1) 
-2.03513

>  <SCORE.INTRA.norm>  (1) 
-0.102

>  <SCORE.RESTR>  (1) 
0

>  <SCORE.RESTR.CAVITY>  (1) 
0

>  <SCORE.RESTR.norm>  (1) 
0

>  <SCORE.SYSTEM>  (1) 
0

>  <SCORE.SYSTEM.CONST>  (1) 
0

>  <SCORE.SYSTEM.DIHEDRAL>  (1) 
0

>  <SCORE.SYSTEM.norm>  (1) 
0

>  <SCORE.heavy>  (1) 
15

>  <SCORE.norm>  (1) 
-1.06822

>  <TETHERED ATOMS>  (1) 
8,7,6,5,11,9,13,10,15,2,1,3,4,14

>  <skeledock_score>  (1) 
105

$$$$
