Cc1nc2ccccc2n1CCC(=O)NC(C)CCO
     RDKit          3D

 41 42  0  0  0  0  0  0  0  0999 V2000
  -18.1786   13.0436   23.4364 C   0  0  0  0  0  0  0  0  0  0  0  0
  -19.2642   12.8115   24.4400 C   0  0  0  0  0  0  0  0  0  0  0  0
  -20.3785   12.0887   24.1546 N   0  0  0  0  0  0  0  0  0  0  0  0
  -21.0789   12.1466   25.3018 C   0  0  0  0  0  0  0  0  0  0  0  0
  -22.3215   11.5747   25.5630 C   0  0  0  0  0  0  0  0  0  0  0  0
  -22.8815   11.7801   26.8373 C   0  0  0  0  0  0  0  0  0  0  0  0
  -22.1935   12.5451   27.8068 C   0  0  0  0  0  0  0  0  0  0  0  0
  -20.9376   13.1092   27.5120 C   0  0  0  0  0  0  0  0  0  0  0  0
  -20.4093   12.8809   26.2390 C   0  0  0  0  0  0  0  0  0  0  0  0
  -19.2461   13.2996   25.7100 N   0  0  0  0  0  0  0  0  0  0  0  0
  -18.2165   14.1391   26.3269 C   0  0  0  0  0  0  0  0  0  0  0  0
  -18.6741   15.6010   26.3792 C   0  0  0  0  0  0  0  0  0  0  0  0
  -17.5626   16.4909   26.8542 C   0  0  0  0  0  0  0  0  0  0  0  0
  -16.9716   16.2211   27.9351 O   0  0  0  0  0  0  0  0  0  0  0  0
  -17.1818   17.6418   26.0865 N   0  0  0  0  0  0  0  0  0  0  0  0
  -16.2219   18.6364   26.5739 C   0  0  0  0  0  0  0  0  0  0  0  0
  -16.9057   19.5248   27.6150 C   0  0  0  0  0  0  0  0  0  0  0  0
  -15.6835   19.4865   25.4054 C   0  0  0  0  0  0  0  0  0  0  0  0
  -14.7477   18.6946   24.4808 C   0  0  0  0  0  0  0  0  0  0  0  0
  -14.5065   19.3880   23.2862 O   0  0  0  0  0  0  0  0  0  0  0  0
  -17.2283   12.6041   23.8037 H   0  0  0  0  0  0  0  0  0  0  0  0
  -18.4415   12.5658   22.4693 H   0  0  0  0  0  0  0  0  0  0  0  0
  -18.0438   14.1325   23.2722 H   0  0  0  0  0  0  0  0  0  0  0  0
  -22.8415   10.9956   24.8109 H   0  0  0  0  0  0  0  0  0  0  0  0
  -23.8464   11.3521   27.0755 H   0  0  0  0  0  0  0  0  0  0  0  0
  -22.6356   12.6993   28.7825 H   0  0  0  0  0  0  0  0  0  0  0  0
  -20.4094   13.6992   28.2491 H   0  0  0  0  0  0  0  0  0  0  0  0
  -17.9924   13.7728   27.3514 H   0  0  0  0  0  0  0  0  0  0  0  0
  -17.2746   14.0536   25.7422 H   0  0  0  0  0  0  0  0  0  0  0  0
  -18.9993   15.9288   25.3675 H   0  0  0  0  0  0  0  0  0  0  0  0
  -19.5428   15.6961   27.0651 H   0  0  0  0  0  0  0  0  0  0  0  0
  -17.7076   17.8498   25.2072 H   0  0  0  0  0  0  0  0  0  0  0  0
  -15.3592   18.1345   27.0657 H   0  0  0  0  0  0  0  0  0  0  0  0
  -17.7622   20.0681   27.1608 H   0  0  0  0  0  0  0  0  0  0  0  0
  -16.1846   20.2630   28.0262 H   0  0  0  0  0  0  0  0  0  0  0  0
  -17.2830   18.9013   28.4534 H   0  0  0  0  0  0  0  0  0  0  0  0
  -16.5266   19.9069   24.8140 H   0  0  0  0  0  0  0  0  0  0  0  0
  -15.1056   20.3429   25.8172 H   0  0  0  0  0  0  0  0  0  0  0  0
  -13.7856   18.4991   25.0065 H   0  0  0  0  0  0  0  0  0  0  0  0
  -15.2005   17.7091   24.2410 H   0  0  0  0  0  0  0  0  0  0  0  0
  -15.3933   19.5667   22.8774 H   0  0  0  0  0  0  0  0  0  0  0  0
  1  2  1  0
  2  3  2  0
  3  4  1  0
  4  5  2  0
  5  6  1  0
  6  7  2  0
  7  8  1  0
  8  9  2  0
  9 10  1  0
 10 11  1  0
 11 12  1  0
 12 13  1  0
 13 14  2  0
 13 15  1  0
 15 16  1  0
 16 17  1  0
 16 18  1  0
 18 19  1  0
 19 20  1  0
 10  2  1  0
  9  4  1  0
  1 21  1  0
  1 22  1  0
  1 23  1  0
  5 24  1  0
  6 25  1  0
  7 26  1  0
  8 27  1  0
 11 28  1  0
 11 29  1  0
 12 30  1  0
 12 31  1  0
 15 32  1  0
 16 33  1  0
 17 34  1  0
 17 35  1  0
 17 36  1  0
 18 37  1  0
 18 38  1  0
 19 39  1  0
 19 40  1  0
 20 41  1  0
M  END
>  <CHROM.1>  (1) 
102.15166320,-173.08035321,-53.05592960,-75.88529232,-70.67947544,167.17692040
-56.47138654,2.62919373,-0.65365696,-2.14453581

>  <Name>  (1) 
Cc1nc2ccccc2n1CCC(=O)NC(C)CCO

>  <RI>  (1) 
4.09786e+07

>  <Rbt.Current_Directory>  (1) 
/data/out

>  <Rbt.Executable>  (1) 
rbdock ($Id: //depot/dev/client3/rdock/2013.1/src/exe/rbdock.cxx#4 $)

>  <Rbt.Library>  (1) 
libRbt.so (2013.1, Build901 2013/11/27)

>  <Rbt.Parameter_File>  (1) 
/python_libraries/phenodiscovery/docking/templates/RDOCK_TETHER.conf

>  <Rbt.Receptor>  (1) 
/data/out/rdock-opt/grid/rdock-grid.prm

>  <SCORE>  (1) 
-17.3602

>  <SCORE.INTER>  (1) 
-17.8956

>  <SCORE.INTER.CONST>  (1) 
1

>  <SCORE.INTER.POLAR>  (1) 
-2.02266

>  <SCORE.INTER.REPUL>  (1) 
0.000926574

>  <SCORE.INTER.ROT>  (1) 
6

>  <SCORE.INTER.VDW>  (1) 
-22.4232

>  <SCORE.INTER.norm>  (1) 
-0.894779

>  <SCORE.INTRA>  (1) 
0.53534

>  <SCORE.INTRA.DIHEDRAL>  (1) 
0.409339

>  <SCORE.INTRA.DIHEDRAL.0>  (1) 
7.0574

>  <SCORE.INTRA.POLAR>  (1) 
0

>  <SCORE.INTRA.POLAR.0>  (1) 
0

>  <SCORE.INTRA.REPUL>  (1) 
0

>  <SCORE.INTRA.REPUL.0>  (1) 
0

>  <SCORE.INTRA.VDW>  (1) 
0.330671

>  <SCORE.INTRA.VDW.0>  (1) 
-1.93138

>  <SCORE.INTRA.norm>  (1) 
0.026767

>  <SCORE.RESTR>  (1) 
0

>  <SCORE.RESTR.CAVITY>  (1) 
0

>  <SCORE.RESTR.norm>  (1) 
0

>  <SCORE.SYSTEM>  (1) 
0

>  <SCORE.SYSTEM.CONST>  (1) 
0

>  <SCORE.SYSTEM.DIHEDRAL>  (1) 
0

>  <SCORE.SYSTEM.norm>  (1) 
0

>  <SCORE.heavy>  (1) 
20

>  <SCORE.norm>  (1) 
-0.868012

>  <TETHERED ATOMS>  (1) 
6,11,9,14,13,12,10,15,5,8,2,7,1,3,4

>  <skeledock_score>  (1) 
115

$$$$
