NCC(=O)NCC(=O)N1CCN(C(=O)c2ccco2)CC1
     RDKit          3D

 39 40  0  0  0  0  0  0  0  0999 V2000
  -14.4370   19.2508   23.3519 N   0  0  0  0  0  0  0  0  0  0  0  0
  -14.2579   19.4631   24.7864 C   0  0  0  0  0  0  0  0  0  0  0  0
  -15.5554   19.3049   25.5274 C   0  0  0  0  0  0  0  0  0  0  0  0
  -16.4279   20.2107   25.4472 O   0  0  0  0  0  0  0  0  0  0  0  0
  -15.8030   18.1249   26.3055 N   0  0  0  0  0  0  0  0  0  0  0  0
  -17.0158   17.9355   27.1002 C   0  0  0  0  0  0  0  0  0  0  0  0
  -17.1387   16.5010   27.5489 C   0  0  0  0  0  0  0  0  0  0  0  0
  -16.6039   16.1820   28.6455 O   0  0  0  0  0  0  0  0  0  0  0  0
  -17.8963   15.5119   26.8137 N   0  0  0  0  0  0  0  0  0  0  0  0
  -18.2365   15.7084   25.3921 C   0  0  0  0  0  0  0  0  0  0  0  0
  -18.3281   14.3693   24.6547 C   0  0  0  0  0  0  0  0  0  0  0  0
  -19.1339   13.4327   25.4393 N   0  0  0  0  0  0  0  0  0  0  0  0
  -20.3355   12.8551   24.8899 C   0  0  0  0  0  0  0  0  0  0  0  0
  -20.4109   12.6542   23.6475 O   0  0  0  0  0  0  0  0  0  0  0  0
  -21.5030   12.5224   25.7300 C   0  0  0  0  0  0  0  0  0  0  0  0
  -22.6915   11.9854   25.2729 C   0  0  0  0  0  0  0  0  0  0  0  0
  -23.4950   11.8537   26.3847 C   0  0  0  0  0  0  0  0  0  0  0  0
  -22.7534   12.3219   27.4495 C   0  0  0  0  0  0  0  0  0  0  0  0
  -21.5743   12.7166   27.0274 O   0  0  0  0  0  0  0  0  0  0  0  0
  -18.6672   13.1695   26.8012 C   0  0  0  0  0  0  0  0  0  0  0  0
  -18.6362   14.4865   27.5731 C   0  0  0  0  0  0  0  0  0  0  0  0
  -15.1809   19.8961   22.9999 H   0  0  0  0  0  0  0  0  0  0  0  0
  -14.7648   18.2698   23.1939 H   0  0  0  0  0  0  0  0  0  0  0  0
  -13.8537   20.4825   24.9647 H   0  0  0  0  0  0  0  0  0  0  0  0
  -13.5122   18.7317   25.1670 H   0  0  0  0  0  0  0  0  0  0  0  0
  -15.0744   17.3762   26.3316 H   0  0  0  0  0  0  0  0  0  0  0  0
  -17.8952   18.2992   26.5346 H   0  0  0  0  0  0  0  0  0  0  0  0
  -16.9478   18.5681   28.0112 H   0  0  0  0  0  0  0  0  0  0  0  0
  -17.4619   16.3092   24.8752 H   0  0  0  0  0  0  0  0  0  0  0  0
  -19.2097   16.2406   25.3200 H   0  0  0  0  0  0  0  0  0  0  0  0
  -17.3075   13.9496   24.5177 H   0  0  0  0  0  0  0  0  0  0  0  0
  -18.7650   14.5412   23.6471 H   0  0  0  0  0  0  0  0  0  0  0  0
  -22.9445   11.7194   24.2548 H   0  0  0  0  0  0  0  0  0  0  0  0
  -24.5037   11.4642   26.4156 H   0  0  0  0  0  0  0  0  0  0  0  0
  -23.0798   12.3660   28.4798 H   0  0  0  0  0  0  0  0  0  0  0  0
  -19.2943   12.4201   27.3245 H   0  0  0  0  0  0  0  0  0  0  0  0
  -17.6383   12.7501   26.7580 H   0  0  0  0  0  0  0  0  0  0  0  0
  -19.6759   14.8403   27.7437 H   0  0  0  0  0  0  0  0  0  0  0  0
  -18.1707   14.2977   28.5640 H   0  0  0  0  0  0  0  0  0  0  0  0
  1  2  1  0
  2  3  1  0
  3  4  2  0
  3  5  1  0
  5  6  1  0
  6  7  1  0
  7  8  2  0
  7  9  1  0
  9 10  1  0
 10 11  1  0
 11 12  1  0
 12 13  1  0
 13 14  2  0
 13 15  1  0
 15 16  2  0
 16 17  1  0
 17 18  2  0
 18 19  1  0
 12 20  1  0
 20 21  1  0
 21  9  1  0
 19 15  1  0
  1 22  1  0
  1 23  1  0
  2 24  1  0
  2 25  1  0
  5 26  1  0
  6 27  1  0
  6 28  1  0
 10 29  1  0
 10 30  1  0
 11 31  1  0
 11 32  1  0
 16 33  1  0
 17 34  1  0
 18 35  1  0
 20 36  1  0
 20 37  1  0
 21 38  1  0
 21 39  1  0
M  END
>  <CHROM.1>  (1) 
55.19927864,-74.19648327,167.26854098,89.29330668,179.07043392,-2.76838349
0.56880848,1.33926622

>  <Name>  (1) 
NCC(=O)NCC(=O)N1CCN(C(=O)c2ccco2)CC1

>  <RI>  (1) 
3.78684e+07

>  <Rbt.Current_Directory>  (1) 
/data/out

>  <Rbt.Executable>  (1) 
rbdock ($Id: //depot/dev/client3/rdock/2013.1/src/exe/rbdock.cxx#4 $)

>  <Rbt.Library>  (1) 
libRbt.so (2013.1, Build901 2013/11/27)

>  <Rbt.Parameter_File>  (1) 
/python_libraries/phenodiscovery/docking/templates/RDOCK_TETHER.conf

>  <Rbt.Receptor>  (1) 
/data/out/rdock-opt/grid/rdock-grid.prm

>  <SCORE>  (1) 
-20.5051

>  <SCORE.INTER>  (1) 
-20.1102

>  <SCORE.INTER.CONST>  (1) 
1

>  <SCORE.INTER.POLAR>  (1) 
-2.26934

>  <SCORE.INTER.REPUL>  (1) 
0

>  <SCORE.INTER.ROT>  (1) 
5

>  <SCORE.INTER.VDW>  (1) 
-22.7945

>  <SCORE.INTER.norm>  (1) 
-0.957631

>  <SCORE.INTRA>  (1) 
-0.394819

>  <SCORE.INTRA.DIHEDRAL>  (1) 
-0.387815

>  <SCORE.INTRA.DIHEDRAL.0>  (1) 
4.30823

>  <SCORE.INTRA.POLAR>  (1) 
0

>  <SCORE.INTRA.POLAR.0>  (1) 
0

>  <SCORE.INTRA.REPUL>  (1) 
0

>  <SCORE.INTRA.REPUL.0>  (1) 
0

>  <SCORE.INTRA.VDW>  (1) 
-0.200912

>  <SCORE.INTRA.VDW.0>  (1) 
-1.24385

>  <SCORE.INTRA.norm>  (1) 
-0.0188009

>  <SCORE.RESTR>  (1) 
0

>  <SCORE.RESTR.CAVITY>  (1) 
0

>  <SCORE.RESTR.norm>  (1) 
0

>  <SCORE.SYSTEM>  (1) 
0

>  <SCORE.SYSTEM.CONST>  (1) 
0

>  <SCORE.SYSTEM.DIHEDRAL>  (1) 
0

>  <SCORE.SYSTEM.norm>  (1) 
0

>  <SCORE.heavy>  (1) 
21

>  <SCORE.norm>  (1) 
-0.976432

>  <TETHERED ATOMS>  (1) 
13,14,7,15,8,9,12,18,16,17,19,10,21,11,20

>  <skeledock_score>  (1) 
113

$$$$
