CCCCN(CC(N)=O)c1ncccc1F
     RDKit          3D

 32 32  0  0  0  0  0  0  0  0999 V2000
  -16.7280   16.1618   26.8273 C   0  0  0  0  0  0  0  0  0  0  0  0
  -18.1512   16.2716   26.2805 C   0  0  0  0  0  0  0  0  0  0  0  0
  -18.6940   14.9318   25.7603 C   0  0  0  0  0  0  0  0  0  0  0  0
  -19.0417   13.9532   26.8909 C   0  0  0  0  0  0  0  0  0  0  0  0
  -19.6829   12.7510   26.3406 N   0  0  0  0  0  0  0  0  0  0  0  0
  -18.8632   11.6868   25.7470 C   0  0  0  0  0  0  0  0  0  0  0  0
  -18.7627   11.8159   24.2582 C   0  0  0  0  0  0  0  0  0  0  0  0
  -17.9178   10.9406   23.5103 N   0  0  0  0  0  0  0  0  0  0  0  0
  -19.3960   12.7260   23.6625 O   0  0  0  0  0  0  0  0  0  0  0  0
  -21.0948   12.5276   26.5202 C   0  0  0  0  0  0  0  0  0  0  0  0
  -21.7510   13.1673   27.5280 N   0  0  0  0  0  0  0  0  0  0  0  0
  -23.0892   13.0299   27.7214 C   0  0  0  0  0  0  0  0  0  0  0  0
  -23.8377   12.2153   26.8715 C   0  0  0  0  0  0  0  0  0  0  0  0
  -23.1967   11.5476   25.8280 C   0  0  0  0  0  0  0  0  0  0  0  0
  -21.8206   11.6997   25.6434 C   0  0  0  0  0  0  0  0  0  0  0  0
  -21.2214   11.0854   24.5937 F   0  0  0  0  0  0  0  0  0  0  0  0
  -16.3477   17.1763   27.0703 H   0  0  0  0  0  0  0  0  0  0  0  0
  -16.0548   15.7046   26.0713 H   0  0  0  0  0  0  0  0  0  0  0  0
  -16.7079   15.5556   27.7562 H   0  0  0  0  0  0  0  0  0  0  0  0
  -18.8232   16.6782   27.0673 H   0  0  0  0  0  0  0  0  0  0  0  0
  -18.1437   16.9970   25.4383 H   0  0  0  0  0  0  0  0  0  0  0  0
  -17.9560   14.4631   25.0730 H   0  0  0  0  0  0  0  0  0  0  0  0
  -19.6136   15.1419   25.1720 H   0  0  0  0  0  0  0  0  0  0  0  0
  -19.7105   14.4471   27.6241 H   0  0  0  0  0  0  0  0  0  0  0  0
  -18.1118   13.6857   27.4337 H   0  0  0  0  0  0  0  0  0  0  0  0
  -17.8363   11.6771   26.1711 H   0  0  0  0  0  0  0  0  0  0  0  0
  -19.3096   10.7021   26.0044 H   0  0  0  0  0  0  0  0  0  0  0  0
  -17.8436   11.0393   22.4736 H   0  0  0  0  0  0  0  0  0  0  0  0
  -17.3694   10.1904   23.9866 H   0  0  0  0  0  0  0  0  0  0  0  0
  -23.5719   13.5558   28.5342 H   0  0  0  0  0  0  0  0  0  0  0  0
  -24.9042   12.1044   27.0188 H   0  0  0  0  0  0  0  0  0  0  0  0
  -23.7686   10.9205   25.1563 H   0  0  0  0  0  0  0  0  0  0  0  0
  1  2  1  0
  2  3  1  0
  3  4  1  0
  4  5  1  0
  5  6  1  0
  6  7  1  0
  7  8  1  0
  7  9  2  0
  5 10  1  0
 10 11  2  0
 11 12  1  0
 12 13  2  0
 13 14  1  0
 14 15  2  0
 15 16  1  0
 15 10  1  0
  1 17  1  0
  1 18  1  0
  1 19  1  0
  2 20  1  0
  2 21  1  0
  3 22  1  0
  3 23  1  0
  4 24  1  0
  4 25  1  0
  6 26  1  0
  6 27  1  0
  8 28  1  0
  8 29  1  0
 12 30  1  0
 13 31  1  0
 14 32  1  0
M  END
>  <CHROM.1>  (1) 
73.03382302,174.13724453,80.45681216,-96.00073184,174.77485441,-20.94674011
-2.69580709,-0.27360930,-2.14264291

>  <Name>  (1) 
CCCCN(CC(N)=O)c1ncccc1F

>  <RI>  (1) 
4.22342e+07

>  <Rbt.Current_Directory>  (1) 
/data/out

>  <Rbt.Executable>  (1) 
rbdock ($Id: //depot/dev/client3/rdock/2013.1/src/exe/rbdock.cxx#4 $)

>  <Rbt.Library>  (1) 
libRbt.so (2013.1, Build901 2013/11/27)

>  <Rbt.Parameter_File>  (1) 
/python_libraries/phenodiscovery/docking/templates/RDOCK_TETHER.conf

>  <Rbt.Receptor>  (1) 
/data/out/rdock-opt/grid/rdock-grid.prm

>  <SCORE>  (1) 
-16.1391

>  <SCORE.INTER>  (1) 
-13.133

>  <SCORE.INTER.CONST>  (1) 
1

>  <SCORE.INTER.POLAR>  (1) 
-0.848528

>  <SCORE.INTER.REPUL>  (1) 
0

>  <SCORE.INTER.ROT>  (1) 
6

>  <SCORE.INTER.VDW>  (1) 
-21.648

>  <SCORE.INTER.norm>  (1) 
-0.820813

>  <SCORE.INTRA>  (1) 
-3.00611

>  <SCORE.INTRA.DIHEDRAL>  (1) 
-7.66311

>  <SCORE.INTRA.DIHEDRAL.0>  (1) 
16.0915

>  <SCORE.INTRA.POLAR>  (1) 
0

>  <SCORE.INTRA.POLAR.0>  (1) 
0

>  <SCORE.INTRA.REPUL>  (1) 
0

>  <SCORE.INTRA.REPUL.0>  (1) 
0

>  <SCORE.INTRA.VDW>  (1) 
0.82544

>  <SCORE.INTRA.VDW.0>  (1) 
-0.499436

>  <SCORE.INTRA.norm>  (1) 
-0.187882

>  <SCORE.RESTR>  (1) 
0

>  <SCORE.RESTR.CAVITY>  (1) 
0

>  <SCORE.RESTR.norm>  (1) 
0

>  <SCORE.SYSTEM>  (1) 
0

>  <SCORE.SYSTEM.CONST>  (1) 
0

>  <SCORE.SYSTEM.DIHEDRAL>  (1) 
0

>  <SCORE.SYSTEM.norm>  (1) 
0

>  <SCORE.heavy>  (1) 
16

>  <SCORE.norm>  (1) 
-1.00869

>  <TETHERED ATOMS>  (1) 
10,15,16,14,13,11,12,5,6,4,9,7

>  <skeledock_score>  (1) 
83

$$$$
