CCOCC(O)CN1CCN(c2ccc(F)cc2)CC1
     RDKit          3D

 43 44  0  0  0  0  0  0  0  0999 V2000
  -12.4356   19.4454   27.0386 C   0  0  0  0  0  0  0  0  0  0  0  0
  -13.7617   19.2863   27.7739 C   0  0  0  0  0  0  0  0  0  0  0  0
  -14.1923   17.9398   27.7187 O   0  0  0  0  0  0  0  0  0  0  0  0
  -15.3587   17.7584   28.4973 C   0  0  0  0  0  0  0  0  0  0  0  0
  -15.8886   16.3277   28.3233 C   0  0  0  0  0  0  0  0  0  0  0  0
  -14.8410   15.4044   28.4757 O   0  0  0  0  0  0  0  0  0  0  0  0
  -16.5373   16.1423   26.9376 C   0  0  0  0  0  0  0  0  0  0  0  0
  -16.6386   14.7109   26.5736 N   0  0  0  0  0  0  0  0  0  0  0  0
  -17.1222   14.5234   25.1817 C   0  0  0  0  0  0  0  0  0  0  0  0
  -18.6420   14.3439   25.0897 C   0  0  0  0  0  0  0  0  0  0  0  0
  -19.1010   13.2939   26.0023 N   0  0  0  0  0  0  0  0  0  0  0  0
  -20.4832   12.9123   25.9856 C   0  0  0  0  0  0  0  0  0  0  0  0
  -21.0077   12.2132   24.8877 C   0  0  0  0  0  0  0  0  0  0  0  0
  -22.3236   11.7428   24.9185 C   0  0  0  0  0  0  0  0  0  0  0  0
  -23.1238   11.9735   26.0418 C   0  0  0  0  0  0  0  0  0  0  0  0
  -24.3854   11.4807   26.0877 F   0  0  0  0  0  0  0  0  0  0  0  0
  -22.6158   12.6951   27.1263 C   0  0  0  0  0  0  0  0  0  0  0  0
  -21.2977   13.1602   27.1014 C   0  0  0  0  0  0  0  0  0  0  0  0
  -18.1892   12.7685   27.0190 C   0  0  0  0  0  0  0  0  0  0  0  0
  -17.3677   13.9197   27.6030 C   0  0  0  0  0  0  0  0  0  0  0  0
  -11.6802   18.7510   27.4635 H   0  0  0  0  0  0  0  0  0  0  0  0
  -12.5635   19.2256   25.9582 H   0  0  0  0  0  0  0  0  0  0  0  0
  -12.0689   20.4877   27.1498 H   0  0  0  0  0  0  0  0  0  0  0  0
  -14.5092   20.0142   27.3772 H   0  0  0  0  0  0  0  0  0  0  0  0
  -13.5998   19.5509   28.8401 H   0  0  0  0  0  0  0  0  0  0  0  0
  -16.1626   18.4727   28.2039 H   0  0  0  0  0  0  0  0  0  0  0  0
  -15.1209   17.9172   29.5735 H   0  0  0  0  0  0  0  0  0  0  0  0
  -16.6609   16.1555   29.1077 H   0  0  0  0  0  0  0  0  0  0  0  0
  -14.4753   15.5334   29.3897 H   0  0  0  0  0  0  0  0  0  0  0  0
  -15.9007   16.6785   26.1991 H   0  0  0  0  0  0  0  0  0  0  0  0
  -17.5431   16.6196   26.9148 H   0  0  0  0  0  0  0  0  0  0  0  0
  -16.6378   13.6128   24.7675 H   0  0  0  0  0  0  0  0  0  0  0  0
  -16.8105   15.3569   24.5148 H   0  0  0  0  0  0  0  0  0  0  0  0
  -18.9041   14.0775   24.0433 H   0  0  0  0  0  0  0  0  0  0  0  0
  -19.1454   15.3008   25.3467 H   0  0  0  0  0  0  0  0  0  0  0  0
  -20.3853   12.0021   24.0273 H   0  0  0  0  0  0  0  0  0  0  0  0
  -22.7166   11.1843   24.0787 H   0  0  0  0  0  0  0  0  0  0  0  0
  -23.2358   12.8765   27.9948 H   0  0  0  0  0  0  0  0  0  0  0  0
  -20.9061   13.6997   27.9545 H   0  0  0  0  0  0  0  0  0  0  0  0
  -18.7493   12.2616   27.8351 H   0  0  0  0  0  0  0  0  0  0  0  0
  -17.5119   12.0205   26.5538 H   0  0  0  0  0  0  0  0  0  0  0  0
  -18.0687   14.5618   28.1837 H   0  0  0  0  0  0  0  0  0  0  0  0
  -16.6297   13.4981   28.3181 H   0  0  0  0  0  0  0  0  0  0  0  0
  1  2  1  0
  2  3  1  0
  3  4  1  0
  4  5  1  0
  5  6  1  0
  5  7  1  0
  7  8  1  0
  8  9  1  0
  9 10  1  0
 10 11  1  0
 11 12  1  0
 12 13  2  0
 13 14  1  0
 14 15  2  0
 15 16  1  0
 15 17  1  0
 17 18  2  0
 11 19  1  0
 19 20  1  0
 20  8  1  0
 18 12  1  0
  1 21  1  0
  1 22  1  0
  1 23  1  0
  2 24  1  0
  2 25  1  0
  4 26  1  0
  4 27  1  0
  5 28  1  0
  6 29  1  0
  7 30  1  0
  7 31  1  0
  9 32  1  0
  9 33  1  0
 10 34  1  0
 10 35  1  0
 13 36  1  0
 14 37  1  0
 17 38  1  0
 18 39  1  0
 19 40  1  0
 19 41  1  0
 20 42  1  0
 20 43  1  0
M  END
>  <CHROM.1>  (1) 
174.80986797,174.71878814,48.21573268,59.85570371,160.93492796,-173.68293213
70.13767780,-0.14023200,-0.41153223,-1.74532668

>  <Name>  (1) 
CCOCC(O)CN1CCN(c2ccc(F)cc2)CC1

>  <RI>  (1) 
0

>  <Rbt.Current_Directory>  (1) 
/data/out

>  <Rbt.Executable>  (1) 
rbdock ($Id: //depot/dev/client3/rdock/2013.1/src/exe/rbdock.cxx#4 $)

>  <Rbt.Library>  (1) 
libRbt.so (2013.1, Build901 2013/11/27)

>  <Rbt.Parameter_File>  (1) 
/python_libraries/phenodiscovery/docking/templates/RDOCK_TETHER.conf

>  <Rbt.Receptor>  (1) 
/data/out/rdock-opt/grid/rdock-grid.prm

>  <SCORE>  (1) 
-19.124

>  <SCORE.INTER>  (1) 
-16.89

>  <SCORE.INTER.CONST>  (1) 
1

>  <SCORE.INTER.POLAR>  (1) 
-1.84474

>  <SCORE.INTER.REPUL>  (1) 
0

>  <SCORE.INTER.ROT>  (1) 
6

>  <SCORE.INTER.VDW>  (1) 
-22.0179

>  <SCORE.INTER.norm>  (1) 
-0.844498

>  <SCORE.INTRA>  (1) 
-2.34296

>  <SCORE.INTRA.DIHEDRAL>  (1) 
-4.08288

>  <SCORE.INTRA.DIHEDRAL.0>  (1) 
16.4502

>  <SCORE.INTRA.POLAR>  (1) 
0

>  <SCORE.INTRA.POLAR.0>  (1) 
0

>  <SCORE.INTRA.REPUL>  (1) 
0

>  <SCORE.INTRA.REPUL.0>  (1) 
0

>  <SCORE.INTRA.VDW>  (1) 
-0.301521

>  <SCORE.INTRA.VDW.0>  (1) 
1.49699

>  <SCORE.INTRA.norm>  (1) 
-0.117148

>  <SCORE.RESTR>  (1) 
0.108965

>  <SCORE.RESTR.CAVITY>  (1) 
0.108965

>  <SCORE.RESTR.norm>  (1) 
0.00544825

>  <SCORE.SYSTEM>  (1) 
0

>  <SCORE.SYSTEM.CONST>  (1) 
0

>  <SCORE.SYSTEM.DIHEDRAL>  (1) 
0

>  <SCORE.SYSTEM.norm>  (1) 
0

>  <SCORE.heavy>  (1) 
20

>  <SCORE.norm>  (1) 
-0.956198

>  <TETHERED ATOMS>  (1) 
11,10,9,12,16,19,8,7,15,20,14,18,13,17

>  <skeledock_score>  (1) 
107

$$$$
