CCn1ncc(NC(=O)C2CCC2)c1C(F)(F)F
     RDKit          3D

 32 33  0  0  0  0  0  0  0  0999 V2000
  -20.6991   12.7441   27.0367 C   0  0  0  0  0  0  0  0  0  0  0  0
  -19.2080   12.5259   26.8091 C   0  0  0  0  0  0  0  0  0  0  0  0
  -18.4872   13.7953   26.9113 N   0  0  0  0  0  0  0  0  0  0  0  0
  -17.9738   14.2267   28.0551 N   0  0  0  0  0  0  0  0  0  0  0  0
  -17.4130   15.4301   27.8366 C   0  0  0  0  0  0  0  0  0  0  0  0
  -17.6013   15.7790   26.5171 C   0  0  0  0  0  0  0  0  0  0  0  0
  -17.0999   16.9758   25.9081 N   0  0  0  0  0  0  0  0  0  0  0  0
  -16.1889   17.8808   26.5478 C   0  0  0  0  0  0  0  0  0  0  0  0
  -15.7732   17.6490   27.7156 O   0  0  0  0  0  0  0  0  0  0  0  0
  -15.7446   19.1143   25.8007 C   0  0  0  0  0  0  0  0  0  0  0  0
  -14.9359   20.1415   26.5965 C   0  0  0  0  0  0  0  0  0  0  0  0
  -13.7478   19.9202   25.6704 C   0  0  0  0  0  0  0  0  0  0  0  0
  -14.5331   18.8649   24.9046 C   0  0  0  0  0  0  0  0  0  0  0  0
  -18.2511   14.7005   25.9286 C   0  0  0  0  0  0  0  0  0  0  0  0
  -18.5309   14.4800   24.4603 C   0  0  0  0  0  0  0  0  0  0  0  0
  -17.4457   13.8587   23.8719 F   0  0  0  0  0  0  0  0  0  0  0  0
  -18.7595   15.6883   23.8289 F   0  0  0  0  0  0  0  0  0  0  0  0
  -19.6587   13.7018   24.2800 F   0  0  0  0  0  0  0  0  0  0  0  0
  -21.2329   11.7728   26.9712 H   0  0  0  0  0  0  0  0  0  0  0  0
  -21.1077   13.4297   26.2644 H   0  0  0  0  0  0  0  0  0  0  0  0
  -20.8738   13.1828   28.0416 H   0  0  0  0  0  0  0  0  0  0  0  0
  -18.8223   11.7862   27.5409 H   0  0  0  0  0  0  0  0  0  0  0  0
  -19.0486   12.0952   25.7971 H   0  0  0  0  0  0  0  0  0  0  0  0
  -16.9120   16.0186   28.5935 H   0  0  0  0  0  0  0  0  0  0  0  0
  -17.2638   17.0957   24.8830 H   0  0  0  0  0  0  0  0  0  0  0  0
  -16.5847   19.5867   25.2447 H   0  0  0  0  0  0  0  0  0  0  0  0
  -14.7020   19.8524   27.6439 H   0  0  0  0  0  0  0  0  0  0  0  0
  -15.3531   21.1683   26.5070 H   0  0  0  0  0  0  0  0  0  0  0  0
  -12.8663   19.4962   26.1993 H   0  0  0  0  0  0  0  0  0  0  0  0
  -13.5179   20.8143   25.0502 H   0  0  0  0  0  0  0  0  0  0  0  0
  -14.7189   19.1579   23.8481 H   0  0  0  0  0  0  0  0  0  0  0  0
  -14.0864   17.8512   25.0137 H   0  0  0  0  0  0  0  0  0  0  0  0
  1  2  1  0
  2  3  1  0
  3  4  1  0
  4  5  2  0
  5  6  1  0
  6  7  1  0
  7  8  1  0
  8  9  2  0
  8 10  1  0
 10 11  1  0
 11 12  1  0
 12 13  1  0
  6 14  2  0
 14 15  1  0
 15 16  1  0
 15 17  1  0
 15 18  1  0
 14  3  1  0
 13 10  1  0
  1 19  1  0
  1 20  1  0
  1 21  1  0
  2 22  1  0
  2 23  1  0
  5 24  1  0
  7 25  1  0
 10 26  1  0
 11 27  1  0
 11 28  1  0
 12 29  1  0
 12 30  1  0
 13 31  1  0
 13 32  1  0
M  END
>  <CHROM.1>  (1) 
91.31373824,8.54119132,171.58146487,-86.52678353,0.31095326,-0.91243672,-1.36097538

>  <Name>  (1) 
CCn1ncc(NC(=O)C2CCC2)c1C(F)(F)F

>  <RI>  (1) 
3.98746e+07

>  <Rbt.Current_Directory>  (1) 
/data/out

>  <Rbt.Executable>  (1) 
rbdock ($Id: //depot/dev/client3/rdock/2013.1/src/exe/rbdock.cxx#4 $)

>  <Rbt.Library>  (1) 
libRbt.so (2013.1, Build901 2013/11/27)

>  <Rbt.Parameter_File>  (1) 
/python_libraries/phenodiscovery/docking/templates/RDOCK_TETHER.conf

>  <Rbt.Receptor>  (1) 
/data/out/rdock-opt/grid/rdock-grid.prm

>  <SCORE>  (1) 
-15.3934

>  <SCORE.INTER>  (1) 
-10.0383

>  <SCORE.INTER.CONST>  (1) 
1

>  <SCORE.INTER.POLAR>  (1) 
-1.16705

>  <SCORE.INTER.REPUL>  (1) 
0

>  <SCORE.INTER.ROT>  (1) 
4

>  <SCORE.INTER.VDW>  (1) 
-15.4703

>  <SCORE.INTER.norm>  (1) 
-0.557683

>  <SCORE.INTRA>  (1) 
-5.35513

>  <SCORE.INTRA.DIHEDRAL>  (1) 
-19.6333

>  <SCORE.INTRA.DIHEDRAL.0>  (1) 
25.4376

>  <SCORE.INTRA.POLAR>  (1) 
0

>  <SCORE.INTRA.POLAR.0>  (1) 
0

>  <SCORE.INTRA.REPUL>  (1) 
0

>  <SCORE.INTRA.REPUL.0>  (1) 
0

>  <SCORE.INTRA.VDW>  (1) 
4.46152

>  <SCORE.INTRA.VDW.0>  (1) 
-3.72957

>  <SCORE.INTRA.norm>  (1) 
-0.297507

>  <SCORE.RESTR>  (1) 
0

>  <SCORE.RESTR.CAVITY>  (1) 
0

>  <SCORE.RESTR.norm>  (1) 
0

>  <SCORE.SYSTEM>  (1) 
0

>  <SCORE.SYSTEM.CONST>  (1) 
0

>  <SCORE.SYSTEM.DIHEDRAL>  (1) 
0

>  <SCORE.SYSTEM.norm>  (1) 
0

>  <SCORE.heavy>  (1) 
18

>  <SCORE.norm>  (1) 
-0.85519

>  <TETHERED ATOMS>  (1) 
7,9,8,6,10,12,13,11,5,4,14,1,2,3

>  <skeledock_score>  (1) 
105

$$$$
