CN(C)S(=O)(=O)c1cccc(NCc2cc[nH]n2)c1
     RDKit          3D

 35 36  0  0  0  0  0  0  0  0999 V2000
  -25.0137   14.8199   30.1397 C   0  0  0  0  0  0  0  0  0  0  0  0
  -24.8154   15.2688   28.7556 N   0  0  0  0  0  0  0  0  0  0  0  0
  -25.6476   16.4477   28.4854 C   0  0  0  0  0  0  0  0  0  0  0  0
  -25.2582   13.9856   27.6578 S   0  0  0  0  0  0  0  0  0  0  0  0
  -26.0156   14.5538   26.4898 O   0  0  0  0  0  0  0  0  0  0  0  0
  -26.1375   12.9851   28.3575 O   0  0  0  0  0  0  0  0  0  0  0  0
  -23.8071   13.1907   27.0522 C   0  0  0  0  0  0  0  0  0  0  0  0
  -23.8553   12.3998   25.8944 C   0  0  0  0  0  0  0  0  0  0  0  0
  -22.7016   11.7623   25.4327 C   0  0  0  0  0  0  0  0  0  0  0  0
  -21.5028   11.8924   26.1341 C   0  0  0  0  0  0  0  0  0  0  0  0
  -21.4426   12.6756   27.2925 C   0  0  0  0  0  0  0  0  0  0  0  0
  -20.2214   12.7207   28.0387 N   0  0  0  0  0  0  0  0  0  0  0  0
  -18.9104   12.5869   27.4170 C   0  0  0  0  0  0  0  0  0  0  0  0
  -18.7654   13.5444   26.2742 C   0  0  0  0  0  0  0  0  0  0  0  0
  -18.4400   13.2238   24.9678 C   0  0  0  0  0  0  0  0  0  0  0  0
  -18.3878   14.4413   24.3234 C   0  0  0  0  0  0  0  0  0  0  0  0
  -18.6588   15.4122   25.2136 N   0  0  0  0  0  0  0  0  0  0  0  0
  -18.8873   14.8785   26.4019 N   0  0  0  0  0  0  0  0  0  0  0  0
  -22.5967   13.3316   27.7477 C   0  0  0  0  0  0  0  0  0  0  0  0
  -24.7365   15.6302   30.8478 H   0  0  0  0  0  0  0  0  0  0  0  0
  -26.0704   14.5246   30.3242 H   0  0  0  0  0  0  0  0  0  0  0  0
  -24.3514   13.9561   30.3583 H   0  0  0  0  0  0  0  0  0  0  0  0
  -26.7285   16.2224   28.6228 H   0  0  0  0  0  0  0  0  0  0  0  0
  -25.4796   16.8017   27.4461 H   0  0  0  0  0  0  0  0  0  0  0  0
  -25.3627   17.2797   29.1648 H   0  0  0  0  0  0  0  0  0  0  0  0
  -24.7826   12.2745   25.3510 H   0  0  0  0  0  0  0  0  0  0  0  0
  -22.7416   11.1533   24.5388 H   0  0  0  0  0  0  0  0  0  0  0  0
  -20.6191   11.3762   25.7799 H   0  0  0  0  0  0  0  0  0  0  0  0
  -20.2755   12.5781   29.0731 H   0  0  0  0  0  0  0  0  0  0  0  0
  -18.1115   12.7560   28.1699 H   0  0  0  0  0  0  0  0  0  0  0  0
  -18.7974   11.5535   27.0252 H   0  0  0  0  0  0  0  0  0  0  0  0
  -18.2630   12.2429   24.5468 H   0  0  0  0  0  0  0  0  0  0  0  0
  -18.1610   14.6083   23.2789 H   0  0  0  0  0  0  0  0  0  0  0  0
  -18.6870   16.4364   25.0148 H   0  0  0  0  0  0  0  0  0  0  0  0
  -22.5605   13.9191   28.6565 H   0  0  0  0  0  0  0  0  0  0  0  0
  1  2  1  0
  2  3  1  0
  2  4  1  0
  4  5  2  0
  4  6  2  0
  4  7  1  0
  7  8  2  0
  8  9  1  0
  9 10  2  0
 10 11  1  0
 11 12  1  0
 12 13  1  0
 13 14  1  0
 14 15  1  0
 15 16  2  0
 16 17  1  0
 17 18  1  0
 11 19  2  0
 19  7  1  0
 18 14  2  0
  1 20  1  0
  1 21  1  0
  1 22  1  0
  3 23  1  0
  3 24  1  0
  3 25  1  0
  8 26  1  0
  9 27  1  0
 10 28  1  0
 12 29  1  0
 13 30  1  0
 13 31  1  0
 15 32  1  0
 16 33  1  0
 17 34  1  0
 19 35  1  0
M  END
>  <CHROM.1>  (1) 
138.73048648,-161.87241682,31.07812934,51.73763113,-124.43419424,-2.82040419
-0.30004107,-1.29189828

>  <Name>  (1) 
CN(C)S(=O)(=O)c1cccc(NCc2cc[nH]n2)c1

>  <RI>  (1) 
1.79557e+07

>  <Rbt.Current_Directory>  (1) 
/data/out

>  <Rbt.Executable>  (1) 
rbdock ($Id: //depot/dev/client3/rdock/2013.1/src/exe/rbdock.cxx#4 $)

>  <Rbt.Library>  (1) 
libRbt.so (2013.1, Build901 2013/11/27)

>  <Rbt.Parameter_File>  (1) 
/python_libraries/phenodiscovery/docking/templates/RDOCK_TETHER.conf

>  <Rbt.Receptor>  (1) 
/data/out/rdock-opt/grid/rdock-grid.prm

>  <SCORE>  (1) 
-15.4572

>  <SCORE.INTER>  (1) 
-16.883

>  <SCORE.INTER.CONST>  (1) 
1

>  <SCORE.INTER.POLAR>  (1) 
-0.830152

>  <SCORE.INTER.REPUL>  (1) 
0.0625865

>  <SCORE.INTER.ROT>  (1) 
5

>  <SCORE.INTER.VDW>  (1) 
-24.7734

>  <SCORE.INTER.norm>  (1) 
-0.888578

>  <SCORE.INTRA>  (1) 
1.42581

>  <SCORE.INTRA.DIHEDRAL>  (1) 
-2.57542

>  <SCORE.INTRA.DIHEDRAL.0>  (1) 
13.9358

>  <SCORE.INTRA.POLAR>  (1) 
0

>  <SCORE.INTRA.POLAR.0>  (1) 
0

>  <SCORE.INTRA.REPUL>  (1) 
0

>  <SCORE.INTRA.REPUL.0>  (1) 
0

>  <SCORE.INTRA.VDW>  (1) 
2.71352

>  <SCORE.INTRA.VDW.0>  (1) 
-4.32784

>  <SCORE.INTRA.norm>  (1) 
0.0750427

>  <SCORE.RESTR>  (1) 
0

>  <SCORE.RESTR.CAVITY>  (1) 
0

>  <SCORE.RESTR.norm>  (1) 
0

>  <SCORE.SYSTEM>  (1) 
0

>  <SCORE.SYSTEM.CONST>  (1) 
0

>  <SCORE.SYSTEM.DIHEDRAL>  (1) 
0

>  <SCORE.SYSTEM.norm>  (1) 
0

>  <SCORE.heavy>  (1) 
19

>  <SCORE.norm>  (1) 
-0.813535

>  <TETHERED ATOMS>  (1) 
12,14,15,13,11,16,18,17,8,10,19,7,9

>  <skeledock_score>  (1) 
94

$$$$
