O=S(=O)(CCCO)Cc1nc2ccccc2[nH]1
     RDKit          3D

 31 32  0  0  0  0  0  0  0  0999 V2000
  -18.3036   15.2062   24.8794 O   0  0  0  0  0  0  0  0  0  0  0  0
  -17.9908   15.0892   26.3447 S   0  0  0  0  0  0  0  0  0  0  0  0
  -19.0384   15.8267   27.1319 O   0  0  0  0  0  0  0  0  0  0  0  0
  -16.3877   15.8144   26.6504 C   0  0  0  0  0  0  0  0  0  0  0  0
  -16.4435   17.3447   26.5836 C   0  0  0  0  0  0  0  0  0  0  0  0
  -15.0588   17.9698   26.7823 C   0  0  0  0  0  0  0  0  0  0  0  0
  -14.5394   17.6477   28.0445 O   0  0  0  0  0  0  0  0  0  0  0  0
  -17.9935   13.3659   26.8094 C   0  0  0  0  0  0  0  0  0  0  0  0
  -19.3435   12.7796   26.5567 C   0  0  0  0  0  0  0  0  0  0  0  0
  -19.7202   12.2808   25.3487 N   0  0  0  0  0  0  0  0  0  0  0  0
  -21.0138   11.9705   25.5498 C   0  0  0  0  0  0  0  0  0  0  0  0
  -21.9190   11.4527   24.6268 C   0  0  0  0  0  0  0  0  0  0  0  0
  -23.2474   11.2592   25.0523 C   0  0  0  0  0  0  0  0  0  0  0  0
  -23.6322   11.5880   26.3730 C   0  0  0  0  0  0  0  0  0  0  0  0
  -22.6913   12.1100   27.2801 C   0  0  0  0  0  0  0  0  0  0  0  0
  -21.3865   12.2816   26.8239 C   0  0  0  0  0  0  0  0  0  0  0  0
  -20.3376   12.7908   27.4789 N   0  0  0  0  0  0  0  0  0  0  0  0
  -15.6795   15.4297   25.8859 H   0  0  0  0  0  0  0  0  0  0  0  0
  -16.0367   15.4908   27.6535 H   0  0  0  0  0  0  0  0  0  0  0  0
  -16.8521   17.6663   25.6011 H   0  0  0  0  0  0  0  0  0  0  0  0
  -17.1161   17.7271   27.3801 H   0  0  0  0  0  0  0  0  0  0  0  0
  -15.1301   19.0748   26.6928 H   0  0  0  0  0  0  0  0  0  0  0  0
  -14.3705   17.6132   25.9827 H   0  0  0  0  0  0  0  0  0  0  0  0
  -15.1542   18.0461   28.7146 H   0  0  0  0  0  0  0  0  0  0  0  0
  -17.7476   13.2771   27.8875 H   0  0  0  0  0  0  0  0  0  0  0  0
  -17.2262   12.8161   26.2253 H   0  0  0  0  0  0  0  0  0  0  0  0
  -21.6159   11.2172   23.6149 H   0  0  0  0  0  0  0  0  0  0  0  0
  -23.9799   10.8610   24.3623 H   0  0  0  0  0  0  0  0  0  0  0  0
  -24.6569   11.4396   26.6876 H   0  0  0  0  0  0  0  0  0  0  0  0
  -22.9734   12.3737   28.2911 H   0  0  0  0  0  0  0  0  0  0  0  0
  -20.3062   13.1551   28.4573 H   0  0  0  0  0  0  0  0  0  0  0  0
  1  2  2  0
  2  3  2  0
  2  4  1  0
  4  5  1  0
  5  6  1  0
  6  7  1  0
  2  8  1  0
  8  9  1  0
  9 10  2  0
 10 11  1  0
 11 12  2  0
 12 13  1  0
 13 14  2  0
 14 15  1  0
 15 16  2  0
 16 17  1  0
 17  9  1  0
 16 11  1  0
  4 18  1  0
  4 19  1  0
  5 20  1  0
  5 21  1  0
  6 22  1  0
  6 23  1  0
  7 24  1  0
  8 25  1  0
  8 26  1  0
 12 27  1  0
 13 28  1  0
 14 29  1  0
 15 30  1  0
 17 31  1  0
M  END
>  <CHROM.1>  (1) 
73.82752403,-177.42450738,-61.52004617,-62.68030484,-60.85594495,85.64470785
0.31775852,0.58328421,1.14903532

>  <Name>  (1) 
O=S(=O)(CCCO)Cc1nc2ccccc2[nH]1

>  <RI>  (1) 
0

>  <Rbt.Current_Directory>  (1) 
/data/out

>  <Rbt.Executable>  (1) 
rbdock ($Id: //depot/dev/client3/rdock/2013.1/src/exe/rbdock.cxx#4 $)

>  <Rbt.Library>  (1) 
libRbt.so (2013.1, Build901 2013/11/27)

>  <Rbt.Parameter_File>  (1) 
/python_libraries/phenodiscovery/docking/templates/RDOCK_TETHER.conf

>  <Rbt.Receptor>  (1) 
/data/out/rdock-opt/grid/rdock-grid.prm

>  <SCORE>  (1) 
-16.2685

>  <SCORE.INTER>  (1) 
-15.5251

>  <SCORE.INTER.CONST>  (1) 
1

>  <SCORE.INTER.POLAR>  (1) 
-1.88365

>  <SCORE.INTER.REPUL>  (1) 
0.000770918

>  <SCORE.INTER.ROT>  (1) 
5

>  <SCORE.INTER.VDW>  (1) 
-19.5246

>  <SCORE.INTER.norm>  (1) 
-0.913242

>  <SCORE.INTRA>  (1) 
-0.743374

>  <SCORE.INTRA.DIHEDRAL>  (1) 
-0.879916

>  <SCORE.INTRA.DIHEDRAL.0>  (1) 
2.668

>  <SCORE.INTRA.POLAR>  (1) 
0

>  <SCORE.INTRA.POLAR.0>  (1) 
0

>  <SCORE.INTRA.REPUL>  (1) 
0

>  <SCORE.INTRA.REPUL.0>  (1) 
0

>  <SCORE.INTRA.VDW>  (1) 
-0.303416

>  <SCORE.INTRA.VDW.0>  (1) 
-2.32563

>  <SCORE.INTRA.norm>  (1) 
-0.0437279

>  <SCORE.RESTR>  (1) 
0

>  <SCORE.RESTR.CAVITY>  (1) 
0

>  <SCORE.RESTR.norm>  (1) 
0

>  <SCORE.SYSTEM>  (1) 
0

>  <SCORE.SYSTEM.CONST>  (1) 
0

>  <SCORE.SYSTEM.DIHEDRAL>  (1) 
0

>  <SCORE.SYSTEM.norm>  (1) 
0

>  <SCORE.heavy>  (1) 
17

>  <SCORE.norm>  (1) 
-0.956969

>  <TETHERED ATOMS>  (1) 
9,4,8,2,3,1,17,11,14,15,13,16,10,12

>  <skeledock_score>  (1) 
107

$$$$
