Cc1n[nH]cc1CNc1ccc(CC(N)=O)cc1
     RDKit          3D

 34 35  0  0  0  0  0  0  0  0999 V2000
  -23.9970   12.7242   27.1794 C   0  0  0  0  0  0  0  0  0  0  0  0
  -23.1717   12.0713   26.1180 C   0  0  0  0  0  0  0  0  0  0  0  0
  -23.7085   11.4076   25.0754 N   0  0  0  0  0  0  0  0  0  0  0  0
  -22.7136   10.9964   24.3061 N   0  0  0  0  0  0  0  0  0  0  0  0
  -21.5390   11.3878   24.8307 C   0  0  0  0  0  0  0  0  0  0  0  0
  -21.7884   12.0667   26.0085 C   0  0  0  0  0  0  0  0  0  0  0  0
  -20.7867   12.7817   26.8752 C   0  0  0  0  0  0  0  0  0  0  0  0
  -19.4920   12.8777   26.2022 N   0  0  0  0  0  0  0  0  0  0  0  0
  -18.6577   14.0375   26.3334 C   0  0  0  0  0  0  0  0  0  0  0  0
  -18.8423   15.1591   25.5091 C   0  0  0  0  0  0  0  0  0  0  0  0
  -18.0433   16.2937   25.6743 C   0  0  0  0  0  0  0  0  0  0  0  0
  -17.0461   16.3201   26.6615 C   0  0  0  0  0  0  0  0  0  0  0  0
  -16.2150   17.5562   26.8713 C   0  0  0  0  0  0  0  0  0  0  0  0
  -14.8976   17.4221   26.1679 C   0  0  0  0  0  0  0  0  0  0  0  0
  -14.8407   17.0004   24.8050 N   0  0  0  0  0  0  0  0  0  0  0  0
  -13.8302   17.6819   26.7850 O   0  0  0  0  0  0  0  0  0  0  0  0
  -16.8616   15.1974   27.4829 C   0  0  0  0  0  0  0  0  0  0  0  0
  -17.6517   14.0586   27.3083 C   0  0  0  0  0  0  0  0  0  0  0  0
  -24.5927   11.9522   27.7093 H   0  0  0  0  0  0  0  0  0  0  0  0
  -23.3679   13.2600   27.9178 H   0  0  0  0  0  0  0  0  0  0  0  0
  -24.6879   13.4550   26.7099 H   0  0  0  0  0  0  0  0  0  0  0  0
  -22.8408   10.4630   23.4180 H   0  0  0  0  0  0  0  0  0  0  0  0
  -20.5739   11.2056   24.3764 H   0  0  0  0  0  0  0  0  0  0  0  0
  -20.6710   12.2632   27.8477 H   0  0  0  0  0  0  0  0  0  0  0  0
  -21.1667   13.8044   27.0822 H   0  0  0  0  0  0  0  0  0  0  0  0
  -19.0428   11.9803   25.9089 H   0  0  0  0  0  0  0  0  0  0  0  0
  -19.5974   15.1575   24.7348 H   0  0  0  0  0  0  0  0  0  0  0  0
  -18.2061   17.1538   25.0367 H   0  0  0  0  0  0  0  0  0  0  0  0
  -16.0358   17.7296   27.9545 H   0  0  0  0  0  0  0  0  0  0  0  0
  -16.7659   18.4431   26.4898 H   0  0  0  0  0  0  0  0  0  0  0  0
  -15.7121   16.7677   24.2790 H   0  0  0  0  0  0  0  0  0  0  0  0
  -13.9202   16.9110   24.3204 H   0  0  0  0  0  0  0  0  0  0  0  0
  -16.1052   15.2050   28.2581 H   0  0  0  0  0  0  0  0  0  0  0  0
  -17.4990   13.2014   27.9520 H   0  0  0  0  0  0  0  0  0  0  0  0
  1  2  1  0
  2  3  2  0
  3  4  1  0
  4  5  1  0
  5  6  2  0
  6  7  1  0
  7  8  1  0
  8  9  1  0
  9 10  2  0
 10 11  1  0
 11 12  2  0
 12 13  1  0
 13 14  1  0
 14 15  1  0
 14 16  2  0
 12 17  1  0
 17 18  2  0
  6  2  1  0
 18  9  1  0
  1 19  1  0
  1 20  1  0
  1 21  1  0
  4 22  1  0
  5 23  1  0
  7 24  1  0
  7 25  1  0
  8 26  1  0
 10 27  1  0
 11 28  1  0
 13 29  1  0
 13 30  1  0
 15 31  1  0
 15 32  1  0
 17 33  1  0
 18 34  1  0
M  END
>  <CHROM.1>  (1) 
-161.90716181,143.20786511,-84.89141403,-98.33222492,48.93679949,-0.47257512
-0.41262703,-2.18802129

>  <Name>  (1) 
Cc1n[nH]cc1CNc1ccc(CC(N)=O)cc1

>  <RI>  (1) 
3.72658e+07

>  <Rbt.Current_Directory>  (1) 
/data/out

>  <Rbt.Executable>  (1) 
rbdock ($Id: //depot/dev/client3/rdock/2013.1/src/exe/rbdock.cxx#4 $)

>  <Rbt.Library>  (1) 
libRbt.so (2013.1, Build901 2013/11/27)

>  <Rbt.Parameter_File>  (1) 
/python_libraries/phenodiscovery/docking/templates/RDOCK_TETHER.conf

>  <Rbt.Receptor>  (1) 
/data/out/rdock-opt/grid/rdock-grid.prm

>  <SCORE>  (1) 
-18.8724

>  <SCORE.INTER>  (1) 
-18.3924

>  <SCORE.INTER.CONST>  (1) 
1

>  <SCORE.INTER.POLAR>  (1) 
-2.28833

>  <SCORE.INTER.REPUL>  (1) 
0.0323839

>  <SCORE.INTER.ROT>  (1) 
5

>  <SCORE.INTER.VDW>  (1) 
-21.174

>  <SCORE.INTER.norm>  (1) 
-1.0218

>  <SCORE.INTRA>  (1) 
-0.549793

>  <SCORE.INTRA.DIHEDRAL>  (1) 
-0.396361

>  <SCORE.INTRA.DIHEDRAL.0>  (1) 
4.84669

>  <SCORE.INTRA.POLAR>  (1) 
0

>  <SCORE.INTRA.POLAR.0>  (1) 
0

>  <SCORE.INTRA.REPUL>  (1) 
0

>  <SCORE.INTRA.REPUL.0>  (1) 
0

>  <SCORE.INTRA.VDW>  (1) 
-0.351613

>  <SCORE.INTRA.VDW.0>  (1) 
-1.92833

>  <SCORE.INTRA.norm>  (1) 
-0.0305441

>  <SCORE.RESTR>  (1) 
0.0698131

>  <SCORE.RESTR.CAVITY>  (1) 
0.0698131

>  <SCORE.RESTR.norm>  (1) 
0.0038785

>  <SCORE.SYSTEM>  (1) 
0

>  <SCORE.SYSTEM.CONST>  (1) 
0

>  <SCORE.SYSTEM.DIHEDRAL>  (1) 
0

>  <SCORE.SYSTEM.norm>  (1) 
0

>  <SCORE.heavy>  (1) 
18

>  <SCORE.norm>  (1) 
-1.04846

>  <TETHERED ATOMS>  (1) 
8,12,9,6,7,11,17,10,18,4,1,5,3,2

>  <skeledock_score>  (1) 
100

$$$$
