Cc1nc2ccccc2n1CCC(=O)N[C@H](C)CN
     RDKit          3D

 39 40  0  0  0  0  0  0  0  0999 V2000
  -18.1872   12.9861   23.4011 C   0  0  0  0  0  0  0  0  0  0  0  0
  -19.1531   12.6899   24.5051 C   0  0  0  0  0  0  0  0  0  0  0  0
  -20.1161   11.7381   24.3953 N   0  0  0  0  0  0  0  0  0  0  0  0
  -20.7548   11.8157   25.5767 C   0  0  0  0  0  0  0  0  0  0  0  0
  -21.8452   11.0596   25.9991 C   0  0  0  0  0  0  0  0  0  0  0  0
  -22.3692   11.3244   27.2779 C   0  0  0  0  0  0  0  0  0  0  0  0
  -21.7972   12.3286   28.0920 C   0  0  0  0  0  0  0  0  0  0  0  0
  -20.6937   13.0753   27.6363 C   0  0  0  0  0  0  0  0  0  0  0  0
  -20.1963   12.7823   26.3640 C   0  0  0  0  0  0  0  0  0  0  0  0
  -19.1670   13.3384   25.7011 N   0  0  0  0  0  0  0  0  0  0  0  0
  -18.2931   14.4326   26.1313 C   0  0  0  0  0  0  0  0  0  0  0  0
  -19.0180   15.7779   26.0147 C   0  0  0  0  0  0  0  0  0  0  0  0
  -18.1300   16.9036   26.4590 C   0  0  0  0  0  0  0  0  0  0  0  0
  -18.3814   17.5020   27.5404 O   0  0  0  0  0  0  0  0  0  0  0  0
  -17.0109   17.3024   25.6541 N   0  0  0  0  0  0  0  0  0  0  0  0
  -16.1216   18.4052   26.0356 C   0  0  0  0  0  0  0  0  0  0  0  0
  -16.7726   19.7549   25.7078 C   0  0  0  0  0  0  0  0  0  0  0  0
  -14.7491   18.2544   25.3532 C   0  0  0  0  0  0  0  0  0  0  0  0
  -14.8895   18.0732   23.9094 N   0  0  0  0  0  0  0  0  0  0  0  0
  -17.1514   12.7875   23.7459 H   0  0  0  0  0  0  0  0  0  0  0  0
  -18.2783   14.0489   23.0956 H   0  0  0  0  0  0  0  0  0  0  0  0
  -18.3995   12.3418   22.5222 H   0  0  0  0  0  0  0  0  0  0  0  0
  -22.2785   10.2972   25.3648 H   0  0  0  0  0  0  0  0  0  0  0  0
  -23.2174   10.7576   27.6390 H   0  0  0  0  0  0  0  0  0  0  0  0
  -22.2107   12.5258   29.0725 H   0  0  0  0  0  0  0  0  0  0  0  0
  -20.2556   13.8476   28.2539 H   0  0  0  0  0  0  0  0  0  0  0  0
  -17.9647   14.2660   27.1793 H   0  0  0  0  0  0  0  0  0  0  0  0
  -17.3752   14.4371   25.5039 H   0  0  0  0  0  0  0  0  0  0  0  0
  -19.9363   15.7625   26.6399 H   0  0  0  0  0  0  0  0  0  0  0  0
  -19.3254   15.9482   24.9596 H   0  0  0  0  0  0  0  0  0  0  0  0
  -16.8307   16.7860   24.7630 H   0  0  0  0  0  0  0  0  0  0  0  0
  -15.9672   18.3809   27.1374 H   0  0  0  0  0  0  0  0  0  0  0  0
  -17.7181   19.8622   26.2810 H   0  0  0  0  0  0  0  0  0  0  0  0
  -16.0961   20.5887   25.9925 H   0  0  0  0  0  0  0  0  0  0  0  0
  -17.0091   19.8326   24.6257 H   0  0  0  0  0  0  0  0  0  0  0  0
  -14.1136   19.1431   25.5675 H   0  0  0  0  0  0  0  0  0  0  0  0
  -14.2307   17.3689   25.7817 H   0  0  0  0  0  0  0  0  0  0  0  0
  -14.0699   17.5152   23.5772 H   0  0  0  0  0  0  0  0  0  0  0  0
  -14.8075   19.0088   23.4500 H   0  0  0  0  0  0  0  0  0  0  0  0
  1  2  1  0
  2  3  2  0
  3  4  1  0
  4  5  2  0
  5  6  1  0
  6  7  2  0
  7  8  1  0
  8  9  2  0
  9 10  1  0
 10 11  1  0
 11 12  1  0
 12 13  1  0
 13 14  2  0
 13 15  1  0
 15 16  1  0
 16 17  1  0
 16 18  1  0
 18 19  1  0
 10  2  1  0
  9  4  1  0
  1 20  1  0
  1 21  1  0
  1 22  1  0
  5 23  1  0
  6 24  1  0
  7 25  1  0
  8 26  1  0
 11 27  1  0
 11 28  1  0
 12 29  1  0
 12 30  1  0
 15 31  1  0
 16 32  1  0
 17 33  1  0
 17 34  1  0
 17 35  1  0
 18 36  1  0
 18 37  1  0
 19 38  1  0
 19 39  1  0
M  END
>  <CHROM.1>  (1) 
101.07585338,179.78096917,-109.41196795,-78.82527379,52.06245393,-151.62948661
-2.46292385,0.79965451,0.74713151

>  <Name>  (1) 
Cc1nc2ccccc2n1CCC(=O)N[C@H](C)CN

>  <RI>  (1) 
3.38229e+07

>  <Rbt.Current_Directory>  (1) 
/data/out

>  <Rbt.Executable>  (1) 
rbdock ($Id: //depot/dev/client3/rdock/2013.1/src/exe/rbdock.cxx#4 $)

>  <Rbt.Library>  (1) 
libRbt.so (2013.1, Build901 2013/11/27)

>  <Rbt.Parameter_File>  (1) 
/python_libraries/phenodiscovery/docking/templates/RDOCK_TETHER.conf

>  <Rbt.Receptor>  (1) 
/data/out/rdock-opt/grid/rdock-grid.prm

>  <SCORE>  (1) 
-15.6363

>  <SCORE.INTER>  (1) 
-15.6266

>  <SCORE.INTER.CONST>  (1) 
1

>  <SCORE.INTER.POLAR>  (1) 
-1.64255

>  <SCORE.INTER.REPUL>  (1) 
0.0349862

>  <SCORE.INTER.ROT>  (1) 
6

>  <SCORE.INTER.VDW>  (1) 
-21.6169

>  <SCORE.INTER.norm>  (1) 
-0.822452

>  <SCORE.INTRA>  (1) 
-0.00973931

>  <SCORE.INTRA.DIHEDRAL>  (1) 
-0.0875208

>  <SCORE.INTRA.DIHEDRAL.0>  (1) 
6.55954

>  <SCORE.INTRA.POLAR>  (1) 
0

>  <SCORE.INTRA.POLAR.0>  (1) 
0

>  <SCORE.INTRA.REPUL>  (1) 
0

>  <SCORE.INTRA.REPUL.0>  (1) 
0

>  <SCORE.INTRA.VDW>  (1) 
0.0340211

>  <SCORE.INTRA.VDW.0>  (1) 
-2.17374

>  <SCORE.INTRA.norm>  (1) 
-0.000512595

>  <SCORE.RESTR>  (1) 
0

>  <SCORE.RESTR.CAVITY>  (1) 
0

>  <SCORE.RESTR.norm>  (1) 
0

>  <SCORE.SYSTEM>  (1) 
0

>  <SCORE.SYSTEM.CONST>  (1) 
0

>  <SCORE.SYSTEM.DIHEDRAL>  (1) 
0

>  <SCORE.SYSTEM.norm>  (1) 
0

>  <SCORE.heavy>  (1) 
19

>  <SCORE.norm>  (1) 
-0.822965

>  <TETHERED ATOMS>  (1) 
10,13,11,14,15,12,9,6,5,2,4,7,1,3,8

>  <skeledock_score>  (1) 
115

$$$$
