CC(=O)NCC[C@H](C)Nc1cc(C)nc2ncnn12
     RDKit          3D

 37 38  0  0  0  0  0  0  0  0999 V2000
  -14.4242   18.3638   26.4305 C   0  0  0  0  0  0  0  0  0  0  0  0
  -15.5422   17.5019   26.9219 C   0  0  0  0  0  0  0  0  0  0  0  0
  -15.4149   16.8996   28.0218 O   0  0  0  0  0  0  0  0  0  0  0  0
  -16.7430   17.3566   26.1496 N   0  0  0  0  0  0  0  0  0  0  0  0
  -17.8777   16.5550   26.6036 C   0  0  0  0  0  0  0  0  0  0  0  0
  -17.5026   15.0620   26.6385 C   0  0  0  0  0  0  0  0  0  0  0  0
  -18.6029   14.1545   27.2367 C   0  0  0  0  0  0  0  0  0  0  0  0
  -18.1131   12.7054   27.2945 C   0  0  0  0  0  0  0  0  0  0  0  0
  -19.8845   14.2181   26.5112 N   0  0  0  0  0  0  0  0  0  0  0  0
  -21.1203   13.7035   27.0293 C   0  0  0  0  0  0  0  0  0  0  0  0
  -21.6489   14.1666   28.2459 C   0  0  0  0  0  0  0  0  0  0  0  0
  -22.9091   13.7050   28.6707 C   0  0  0  0  0  0  0  0  0  0  0  0
  -23.4818   14.1969   29.9604 C   0  0  0  0  0  0  0  0  0  0  0  0
  -23.6368   12.8663   27.8762 N   0  0  0  0  0  0  0  0  0  0  0  0
  -23.1116   12.4706   26.6916 C   0  0  0  0  0  0  0  0  0  0  0  0
  -23.7193   11.6803   25.7919 N   0  0  0  0  0  0  0  0  0  0  0  0
  -22.7790   11.6367   24.8102 C   0  0  0  0  0  0  0  0  0  0  0  0
  -21.6686   12.3622   25.0979 N   0  0  0  0  0  0  0  0  0  0  0  0
  -21.9059   12.8761   26.2888 N   0  0  0  0  0  0  0  0  0  0  0  0
  -14.2244   19.1686   27.1684 H   0  0  0  0  0  0  0  0  0  0  0  0
  -14.6793   18.8292   25.4556 H   0  0  0  0  0  0  0  0  0  0  0  0
  -13.5086   17.7489   26.3048 H   0  0  0  0  0  0  0  0  0  0  0  0
  -16.7991   17.8021   25.2060 H   0  0  0  0  0  0  0  0  0  0  0  0
  -18.7420   16.7211   25.9251 H   0  0  0  0  0  0  0  0  0  0  0  0
  -18.1811   16.8996   27.6149 H   0  0  0  0  0  0  0  0  0  0  0  0
  -17.2955   14.7274   25.5987 H   0  0  0  0  0  0  0  0  0  0  0  0
  -16.5507   14.9048   27.1848 H   0  0  0  0  0  0  0  0  0  0  0  0
  -18.7814   14.4920   28.2815 H   0  0  0  0  0  0  0  0  0  0  0  0
  -18.8380   12.0891   27.8680 H   0  0  0  0  0  0  0  0  0  0  0  0
  -17.1301   12.6437   27.8087 H   0  0  0  0  0  0  0  0  0  0  0  0
  -18.0211   12.2732   26.2756 H   0  0  0  0  0  0  0  0  0  0  0  0
  -19.8682   14.4277   25.4869 H   0  0  0  0  0  0  0  0  0  0  0  0
  -21.1407   14.9094   28.8377 H   0  0  0  0  0  0  0  0  0  0  0  0
  -24.3598   13.5832   30.2533 H   0  0  0  0  0  0  0  0  0  0  0  0
  -23.8027   15.2534   29.8456 H   0  0  0  0  0  0  0  0  0  0  0  0
  -22.7203   14.1307   30.7663 H   0  0  0  0  0  0  0  0  0  0  0  0
  -22.9046   11.0815   23.8906 H   0  0  0  0  0  0  0  0  0  0  0  0
  1  2  1  0
  2  3  2  0
  2  4  1  0
  4  5  1  0
  5  6  1  0
  6  7  1  0
  7  8  1  0
  7  9  1  0
  9 10  1  0
 10 11  2  0
 11 12  1  0
 12 13  1  0
 12 14  2  0
 14 15  1  0
 15 16  2  0
 16 17  1  0
 17 18  2  0
 18 19  1  0
 19 10  1  0
 19 15  1  0
  1 20  1  0
  1 21  1  0
  1 22  1  0
  4 23  1  0
  5 24  1  0
  5 25  1  0
  6 26  1  0
  6 27  1  0
  7 28  1  0
  8 29  1  0
  8 30  1  0
  8 31  1  0
  9 32  1  0
 11 33  1  0
 13 34  1  0
 13 35  1  0
 13 36  1  0
 17 37  1  0
M  END
>  <CHROM.1>  (1) 
-67.19678778,174.46313267,-177.15262300,-166.05908800,58.39957338,0.13050500
0.20737152,1.06627520

>  <Name>  (1) 
CC(=O)NCC[C@H](C)Nc1cc(C)nc2ncnn12

>  <RI>  (1) 
0

>  <Rbt.Current_Directory>  (1) 
/data/out

>  <Rbt.Executable>  (1) 
rbdock ($Id: //depot/dev/client3/rdock/2013.1/src/exe/rbdock.cxx#4 $)

>  <Rbt.Library>  (1) 
libRbt.so (2013.1, Build901 2013/11/27)

>  <Rbt.Parameter_File>  (1) 
/python_libraries/phenodiscovery/docking/templates/RDOCK_TETHER.conf

>  <Rbt.Receptor>  (1) 
/data/out/rdock-opt/grid/rdock-grid.prm

>  <SCORE>  (1) 
-15.7344

>  <SCORE.INTER>  (1) 
-13.2672

>  <SCORE.INTER.CONST>  (1) 
1

>  <SCORE.INTER.POLAR>  (1) 
-1.3914

>  <SCORE.INTER.REPUL>  (1) 
0.485221

>  <SCORE.INTER.ROT>  (1) 
5

>  <SCORE.INTER.VDW>  (1) 
-21.3625

>  <SCORE.INTER.norm>  (1) 
-0.698272

>  <SCORE.INTRA>  (1) 
-2.47137

>  <SCORE.INTRA.DIHEDRAL>  (1) 
-2.55204

>  <SCORE.INTRA.DIHEDRAL.0>  (1) 
13.9243

>  <SCORE.INTRA.POLAR>  (1) 
0

>  <SCORE.INTRA.POLAR.0>  (1) 
0

>  <SCORE.INTRA.REPUL>  (1) 
0

>  <SCORE.INTRA.REPUL.0>  (1) 
0

>  <SCORE.INTRA.VDW>  (1) 
-1.19535

>  <SCORE.INTRA.VDW.0>  (1) 
-0.702258

>  <SCORE.INTRA.norm>  (1) 
-0.130072

>  <SCORE.RESTR>  (1) 
0.00410226

>  <SCORE.RESTR.CAVITY>  (1) 
0.00410226

>  <SCORE.RESTR.norm>  (1) 
0.000215908

>  <SCORE.SYSTEM>  (1) 
0

>  <SCORE.SYSTEM.CONST>  (1) 
0

>  <SCORE.SYSTEM.DIHEDRAL>  (1) 
0

>  <SCORE.SYSTEM.norm>  (1) 
0

>  <SCORE.heavy>  (1) 
19

>  <SCORE.norm>  (1) 
-0.828128

>  <TETHERED ATOMS>  (1) 
10,11,12,13,15,16,17,19,18,9,14,7,8

>  <skeledock_score>  (1) 
94

$$$$
