O=C(c1nc(=O)[nH][nH]1)N1CCN(c2ccc(F)cc2)CC1
     RDKit          3D

 35 37  0  0  0  0  0  0  0  0999 V2000
  -16.0524   15.7579   28.5864 O   0  0  0  0  0  0  0  0  0  0  0  0
  -15.9327   15.6341   27.3380 C   0  0  0  0  0  0  0  0  0  0  0  0
  -14.9819   16.5031   26.6257 C   0  0  0  0  0  0  0  0  0  0  0  0
  -14.3678   17.5629   27.2012 N   0  0  0  0  0  0  0  0  0  0  0  0
  -13.5765   17.9945   26.1977 C   0  0  0  0  0  0  0  0  0  0  0  0
  -12.8099   18.9880   26.2960 O   0  0  0  0  0  0  0  0  0  0  0  0
  -13.6860   17.2472   25.0886 N   0  0  0  0  0  0  0  0  0  0  0  0
  -14.5664   16.3040   25.3586 N   0  0  0  0  0  0  0  0  0  0  0  0
  -16.7172   14.6505   26.6405 N   0  0  0  0  0  0  0  0  0  0  0  0
  -16.9029   13.3140   27.2186 C   0  0  0  0  0  0  0  0  0  0  0  0
  -18.3971   13.0046   27.3392 C   0  0  0  0  0  0  0  0  0  0  0  0
  -19.1134   13.3091   26.0885 N   0  0  0  0  0  0  0  0  0  0  0  0
  -20.5133   12.9853   25.9627 C   0  0  0  0  0  0  0  0  0  0  0  0
  -20.9668   12.1777   24.9035 C   0  0  0  0  0  0  0  0  0  0  0  0
  -22.3059   11.7864   24.8353 C   0  0  0  0  0  0  0  0  0  0  0  0
  -23.2078   12.1992   25.8180 C   0  0  0  0  0  0  0  0  0  0  0  0
  -24.4954   11.7791   25.7728 F   0  0  0  0  0  0  0  0  0  0  0  0
  -22.7780   13.0296   26.8562 C   0  0  0  0  0  0  0  0  0  0  0  0
  -21.4385   13.4238   26.9291 C   0  0  0  0  0  0  0  0  0  0  0  0
  -18.3968   13.9179   24.9577 C   0  0  0  0  0  0  0  0  0  0  0  0
  -17.4823   15.0465   25.4477 C   0  0  0  0  0  0  0  0  0  0  0  0
  -13.1717   17.3578   24.1864 H   0  0  0  0  0  0  0  0  0  0  0  0
  -14.8322   15.5315   24.7085 H   0  0  0  0  0  0  0  0  0  0  0  0
  -16.4233   13.2327   28.2184 H   0  0  0  0  0  0  0  0  0  0  0  0
  -16.4225   12.5631   26.5547 H   0  0  0  0  0  0  0  0  0  0  0  0
  -18.5275   11.9304   27.5928 H   0  0  0  0  0  0  0  0  0  0  0  0
  -18.8087   13.6192   28.1668 H   0  0  0  0  0  0  0  0  0  0  0  0
  -20.2827   11.8096   24.1519 H   0  0  0  0  0  0  0  0  0  0  0  0
  -22.6395   11.1440   24.0305 H   0  0  0  0  0  0  0  0  0  0  0  0
  -23.4786   13.3566   27.6137 H   0  0  0  0  0  0  0  0  0  0  0  0
  -21.1207   14.0608   27.7447 H   0  0  0  0  0  0  0  0  0  0  0  0
  -19.1086   14.3415   24.2156 H   0  0  0  0  0  0  0  0  0  0  0  0
  -17.7896   13.1381   24.4491 H   0  0  0  0  0  0  0  0  0  0  0  0
  -18.1108   15.9287   25.6991 H   0  0  0  0  0  0  0  0  0  0  0  0
  -16.7990   15.3329   24.6236 H   0  0  0  0  0  0  0  0  0  0  0  0
  1  2  2  0
  2  3  1  0
  3  4  2  0
  4  5  1  0
  5  6  2  0
  5  7  1  0
  7  8  1  0
  2  9  1  0
  9 10  1  0
 10 11  1  0
 11 12  1  0
 12 13  1  0
 13 14  2  0
 14 15  1  0
 15 16  2  0
 16 17  1  0
 16 18  1  0
 18 19  2  0
 12 20  1  0
 20 21  1  0
  8  3  1  0
 21  9  1  0
 19 13  1  0
  7 22  1  0
  8 23  1  0
 10 24  1  0
 10 25  1  0
 11 26  1  0
 11 27  1  0
 14 28  1  0
 15 29  1  0
 18 30  1  0
 19 31  1  0
 20 32  1  0
 20 33  1  0
 21 34  1  0
 21 35  1  0
M  END
>  <CHROM.1>  (1) 
-10.02622047,-124.58269219,-0.32271027,-0.31177327,-1.91385881

>  <Name>  (1) 
O=C(c1nc(=O)[nH][nH]1)N1CCN(c2ccc(F)cc2)CC1

>  <RI>  (1) 
0

>  <Rbt.Current_Directory>  (1) 
/data/out

>  <Rbt.Executable>  (1) 
rbdock ($Id: //depot/dev/client3/rdock/2013.1/src/exe/rbdock.cxx#4 $)

>  <Rbt.Library>  (1) 
libRbt.so (2013.1, Build901 2013/11/27)

>  <Rbt.Parameter_File>  (1) 
/python_libraries/phenodiscovery/docking/templates/RDOCK_TETHER.conf

>  <Rbt.Receptor>  (1) 
/data/out/rdock-opt/grid/rdock-grid.prm

>  <SCORE>  (1) 
-16.5471

>  <SCORE.INTER>  (1) 
-17.5354

>  <SCORE.INTER.CONST>  (1) 
1

>  <SCORE.INTER.POLAR>  (1) 
-1.30502

>  <SCORE.INTER.REPUL>  (1) 
0.225181

>  <SCORE.INTER.ROT>  (1) 
2

>  <SCORE.INTER.VDW>  (1) 
-21.6242

>  <SCORE.INTER.norm>  (1) 
-0.835018

>  <SCORE.INTRA>  (1) 
0.89061

>  <SCORE.INTRA.DIHEDRAL>  (1) 
1.21082

>  <SCORE.INTRA.DIHEDRAL.0>  (1) 
7.51916

>  <SCORE.INTRA.POLAR>  (1) 
0

>  <SCORE.INTRA.POLAR.0>  (1) 
0

>  <SCORE.INTRA.REPUL>  (1) 
0

>  <SCORE.INTRA.REPUL.0>  (1) 
0

>  <SCORE.INTRA.VDW>  (1) 
0.285198

>  <SCORE.INTRA.VDW.0>  (1) 
-0.891178

>  <SCORE.INTRA.norm>  (1) 
0.04241

>  <SCORE.RESTR>  (1) 
0.0976578

>  <SCORE.RESTR.CAVITY>  (1) 
0.0976578

>  <SCORE.RESTR.norm>  (1) 
0.00465037

>  <SCORE.SYSTEM>  (1) 
0

>  <SCORE.SYSTEM.CONST>  (1) 
0

>  <SCORE.SYSTEM.DIHEDRAL>  (1) 
0

>  <SCORE.SYSTEM.norm>  (1) 
0

>  <SCORE.heavy>  (1) 
21

>  <SCORE.norm>  (1) 
-0.787958

>  <TETHERED ATOMS>  (1) 
12,21,20,11,13,17,1,10,9,16,2,14,19,15,18

>  <skeledock_score>  (1) 
113

$$$$
