O=C(O)CNC(=O)N1CCN(c2ccc(F)cc2)CC1
     RDKit          3D

 36 37  0  0  0  0  0  0  0  0999 V2000
  -13.0838   17.8566   27.2550 O   0  0  0  0  0  0  0  0  0  0  0  0
  -13.7847   18.2414   26.2825 C   0  0  0  0  0  0  0  0  0  0  0  0
  -13.1634   18.6120   25.0937 O   0  0  0  0  0  0  0  0  0  0  0  0
  -15.2710   18.3396   26.4242 C   0  0  0  0  0  0  0  0  0  0  0  0
  -15.8895   17.0868   25.9942 N   0  0  0  0  0  0  0  0  0  0  0  0
  -16.1678   16.0011   26.8976 C   0  0  0  0  0  0  0  0  0  0  0  0
  -15.8038   16.0905   28.1021 O   0  0  0  0  0  0  0  0  0  0  0  0
  -16.8596   14.8150   26.4437 N   0  0  0  0  0  0  0  0  0  0  0  0
  -17.5466   14.8136   25.1413 C   0  0  0  0  0  0  0  0  0  0  0  0
  -18.3718   13.5394   24.9284 C   0  0  0  0  0  0  0  0  0  0  0  0
  -19.1077   13.1973   26.1544 N   0  0  0  0  0  0  0  0  0  0  0  0
  -20.5108   12.8688   26.0863 C   0  0  0  0  0  0  0  0  0  0  0  0
  -20.9915   11.9664   25.1187 C   0  0  0  0  0  0  0  0  0  0  0  0
  -22.3379   11.5948   25.1049 C   0  0  0  0  0  0  0  0  0  0  0  0
  -23.2193   12.1170   26.0533 C   0  0  0  0  0  0  0  0  0  0  0  0
  -24.5150   11.7201   26.0624 F   0  0  0  0  0  0  0  0  0  0  0  0
  -22.7610   13.0344   27.0022 C   0  0  0  0  0  0  0  0  0  0  0  0
  -21.4152   13.4124   27.0181 C   0  0  0  0  0  0  0  0  0  0  0  0
  -18.4083   13.2011   27.4510 C   0  0  0  0  0  0  0  0  0  0  0  0
  -16.9433   13.6170   27.2950 C   0  0  0  0  0  0  0  0  0  0  0  0
  -13.7038   18.9327   24.2991 H   0  0  0  0  0  0  0  0  0  0  0  0
  -15.6608   19.1715   25.7989 H   0  0  0  0  0  0  0  0  0  0  0  0
  -15.5201   18.5750   27.4804 H   0  0  0  0  0  0  0  0  0  0  0  0
  -16.0966   16.9892   24.9763 H   0  0  0  0  0  0  0  0  0  0  0  0
  -16.8007   14.8939   24.3219 H   0  0  0  0  0  0  0  0  0  0  0  0
  -18.2332   15.6872   25.0916 H   0  0  0  0  0  0  0  0  0  0  0  0
  -19.0622   13.6990   24.0715 H   0  0  0  0  0  0  0  0  0  0  0  0
  -17.6919   12.6992   24.6685 H   0  0  0  0  0  0  0  0  0  0  0  0
  -20.3263   11.5109   24.3996 H   0  0  0  0  0  0  0  0  0  0  0  0
  -22.6933   10.8830   24.3707 H   0  0  0  0  0  0  0  0  0  0  0  0
  -23.4457   13.4456   27.7327 H   0  0  0  0  0  0  0  0  0  0  0  0
  -21.0770   14.1236   27.7608 H   0  0  0  0  0  0  0  0  0  0  0  0
  -18.4609   12.1891   27.9068 H   0  0  0  0  0  0  0  0  0  0  0  0
  -18.8884   13.9263   28.1394 H   0  0  0  0  0  0  0  0  0  0  0  0
  -16.5036   13.7853   28.3008 H   0  0  0  0  0  0  0  0  0  0  0  0
  -16.3714   12.7917   26.8182 H   0  0  0  0  0  0  0  0  0  0  0  0
  1  2  2  0
  2  3  1  0
  2  4  1  0
  4  5  1  0
  5  6  1  0
  6  7  2  0
  6  8  1  0
  8  9  1  0
  9 10  1  0
 10 11  1  0
 11 12  1  0
 12 13  2  0
 13 14  1  0
 14 15  2  0
 15 16  1  0
 15 17  1  0
 17 18  2  0
 11 19  1  0
 19 20  1  0
 20  8  1  0
 18 12  1  0
  3 21  1  0
  4 22  1  0
  4 23  1  0
  5 24  1  0
  9 25  1  0
  9 26  1  0
 10 27  1  0
 10 28  1  0
 13 29  1  0
 14 30  1  0
 17 31  1  0
 18 32  1  0
 19 33  1  0
 19 34  1  0
 20 35  1  0
 20 36  1  0
M  END
>  <CHROM.1>  (1) 
-179.47218390,-92.30137916,91.39211576,46.91220602,-0.28448104,-0.41311318
-1.98686074

>  <Name>  (1) 
O=C(O)CNC(=O)N1CCN(c2ccc(F)cc2)CC1

>  <RI>  (1) 
0

>  <Rbt.Current_Directory>  (1) 
/data/out

>  <Rbt.Executable>  (1) 
rbdock ($Id: //depot/dev/client3/rdock/2013.1/src/exe/rbdock.cxx#4 $)

>  <Rbt.Library>  (1) 
libRbt.so (2013.1, Build901 2013/11/27)

>  <Rbt.Parameter_File>  (1) 
/python_libraries/phenodiscovery/docking/templates/RDOCK_TETHER.conf

>  <Rbt.Receptor>  (1) 
/data/out/rdock-opt/grid/rdock-grid.prm

>  <SCORE>  (1) 
-15.5653

>  <SCORE.INTER>  (1) 
-15.3297

>  <SCORE.INTER.CONST>  (1) 
1

>  <SCORE.INTER.POLAR>  (1) 
-1.62595

>  <SCORE.INTER.REPUL>  (1) 
0.337163

>  <SCORE.INTER.ROT>  (1) 
3

>  <SCORE.INTER.VDW>  (1) 
-19.8873

>  <SCORE.INTER.norm>  (1) 
-0.766487

>  <SCORE.INTRA>  (1) 
-0.235561

>  <SCORE.INTRA.DIHEDRAL>  (1) 
0.676555

>  <SCORE.INTRA.DIHEDRAL.0>  (1) 
8.37781

>  <SCORE.INTRA.POLAR>  (1) 
0

>  <SCORE.INTRA.POLAR.0>  (1) 
0

>  <SCORE.INTRA.REPUL>  (1) 
0

>  <SCORE.INTRA.REPUL.0>  (1) 
0

>  <SCORE.INTRA.VDW>  (1) 
-0.573838

>  <SCORE.INTRA.VDW.0>  (1) 
-0.137479

>  <SCORE.INTRA.norm>  (1) 
-0.011778

>  <SCORE.RESTR>  (1) 
0

>  <SCORE.RESTR.CAVITY>  (1) 
0

>  <SCORE.RESTR.norm>  (1) 
0

>  <SCORE.SYSTEM>  (1) 
0

>  <SCORE.SYSTEM.CONST>  (1) 
0

>  <SCORE.SYSTEM.DIHEDRAL>  (1) 
0

>  <SCORE.SYSTEM.norm>  (1) 
0

>  <SCORE.heavy>  (1) 
20

>  <SCORE.norm>  (1) 
-0.778265

>  <TETHERED ATOMS>  (1) 
11,10,9,7,12,16,19,8,6,15,5,20,14,18,13,17

>  <skeledock_score>  (1) 
123

$$$$
