CC(C)(N)CNC(=O)N1CCN(c2ccc(F)cc2)CC1
     RDKit          3D

 44 45  0  0  0  0  0  0  0  0999 V2000
  -13.8489   18.8225   24.8203 C   0  0  0  0  0  0  0  0  0  0  0  0
  -14.1193   18.7288   26.3368 C   0  0  0  0  0  0  0  0  0  0  0  0
  -13.5917   20.0055   27.0212 C   0  0  0  0  0  0  0  0  0  0  0  0
  -13.4245   17.5616   26.8973 N   0  0  0  0  0  0  0  0  0  0  0  0
  -15.6433   18.5822   26.5715 C   0  0  0  0  0  0  0  0  0  0  0  0
  -16.1279   17.2723   26.1279 N   0  0  0  0  0  0  0  0  0  0  0  0
  -16.3499   16.1733   27.0307 C   0  0  0  0  0  0  0  0  0  0  0  0
  -16.0498   16.3030   28.2491 O   0  0  0  0  0  0  0  0  0  0  0  0
  -16.9301   14.9341   26.5631 N   0  0  0  0  0  0  0  0  0  0  0  0
  -17.5810   14.8762   25.2435 C   0  0  0  0  0  0  0  0  0  0  0  0
  -18.3050   13.5440   25.0183 C   0  0  0  0  0  0  0  0  0  0  0  0
  -19.0464   13.1552   26.2270 N   0  0  0  0  0  0  0  0  0  0  0  0
  -20.4184   12.7212   26.1238 C   0  0  0  0  0  0  0  0  0  0  0  0
  -20.8242   11.8901   25.0626 C   0  0  0  0  0  0  0  0  0  0  0  0
  -22.1678   11.5327   24.9169 C   0  0  0  0  0  0  0  0  0  0  0  0
  -23.1180   11.9944   25.8312 C   0  0  0  0  0  0  0  0  0  0  0  0
  -24.4263   11.6810   25.6678 F   0  0  0  0  0  0  0  0  0  0  0  0
  -22.7225   12.7938   26.9052 C   0  0  0  0  0  0  0  0  0  0  0  0
  -21.3817   13.1564   27.0533 C   0  0  0  0  0  0  0  0  0  0  0  0
  -18.3849   13.2192   27.5419 C   0  0  0  0  0  0  0  0  0  0  0  0
  -16.9498   13.7383   27.4210 C   0  0  0  0  0  0  0  0  0  0  0  0
  -14.2114   17.9095   24.3010 H   0  0  0  0  0  0  0  0  0  0  0  0
  -14.3677   19.7035   24.3841 H   0  0  0  0  0  0  0  0  0  0  0  0
  -12.7602   18.9235   24.6218 H   0  0  0  0  0  0  0  0  0  0  0  0
  -12.5184   20.1619   26.7788 H   0  0  0  0  0  0  0  0  0  0  0  0
  -14.1603   20.8981   26.6820 H   0  0  0  0  0  0  0  0  0  0  0  0
  -13.6769   19.9256   28.1255 H   0  0  0  0  0  0  0  0  0  0  0  0
  -13.7623   16.6934   26.4204 H   0  0  0  0  0  0  0  0  0  0  0  0
  -12.3994   17.6372   26.7003 H   0  0  0  0  0  0  0  0  0  0  0  0
  -15.8796   18.7045   27.6514 H   0  0  0  0  0  0  0  0  0  0  0  0
  -16.1813   19.3963   26.0387 H   0  0  0  0  0  0  0  0  0  0  0  0
  -16.2927   17.1486   25.1056 H   0  0  0  0  0  0  0  0  0  0  0  0
  -16.8218   15.0069   24.4431 H   0  0  0  0  0  0  0  0  0  0  0  0
  -18.3279   15.6971   25.1703 H   0  0  0  0  0  0  0  0  0  0  0  0
  -18.9825   13.6484   24.1427 H   0  0  0  0  0  0  0  0  0  0  0  0
  -17.5591   12.7544   24.7821 H   0  0  0  0  0  0  0  0  0  0  0  0
  -20.1014   11.5244   24.3444 H   0  0  0  0  0  0  0  0  0  0  0  0
  -22.4728   10.9063   24.0885 H   0  0  0  0  0  0  0  0  0  0  0  0
  -23.4593   13.1521   27.6128 H   0  0  0  0  0  0  0  0  0  0  0  0
  -21.1147   13.8120   27.8696 H   0  0  0  0  0  0  0  0  0  0  0  0
  -18.3771   12.2096   28.0058 H   0  0  0  0  0  0  0  0  0  0  0  0
  -18.9348   13.9132   28.2102 H   0  0  0  0  0  0  0  0  0  0  0  0
  -16.3081   12.9535   26.9651 H   0  0  0  0  0  0  0  0  0  0  0  0
  -16.5492   13.9434   28.4362 H   0  0  0  0  0  0  0  0  0  0  0  0
  1  2  1  0
  2  3  1  0
  2  4  1  0
  2  5  1  0
  5  6  1  0
  6  7  1  0
  7  8  2  0
  7  9  1  0
  9 10  1  0
 10 11  1  0
 11 12  1  0
 12 13  1  0
 13 14  2  0
 14 15  1  0
 15 16  2  0
 16 17  1  0
 16 18  1  0
 18 19  2  0
 12 20  1  0
 20 21  1  0
 21  9  1  0
 19 13  1  0
  1 22  1  0
  1 23  1  0
  1 24  1  0
  3 25  1  0
  3 26  1  0
  3 27  1  0
  4 28  1  0
  4 29  1  0
  5 30  1  0
  5 31  1  0
  6 32  1  0
 10 33  1  0
 10 34  1  0
 11 35  1  0
 11 36  1  0
 14 37  1  0
 15 38  1  0
 18 39  1  0
 19 40  1  0
 20 41  1  0
 20 42  1  0
 21 43  1  0
 21 44  1  0
M  END
>  <CHROM.1>  (1) 
-59.20939409,69.77205338,98.91547085,40.11752128,-0.34891002,-0.43726420
-1.99260794

>  <Name>  (1) 
CC(C)(N)CNC(=O)N1CCN(c2ccc(F)cc2)CC1

>  <RI>  (1) 
0

>  <Rbt.Current_Directory>  (1) 
/data/out

>  <Rbt.Executable>  (1) 
rbdock ($Id: //depot/dev/client3/rdock/2013.1/src/exe/rbdock.cxx#4 $)

>  <Rbt.Library>  (1) 
libRbt.so (2013.1, Build901 2013/11/27)

>  <Rbt.Parameter_File>  (1) 
/python_libraries/phenodiscovery/docking/templates/RDOCK_TETHER.conf

>  <Rbt.Receptor>  (1) 
/data/out/rdock-opt/grid/rdock-grid.prm

>  <SCORE>  (1) 
-16.6144

>  <SCORE.INTER>  (1) 
-16.8111

>  <SCORE.INTER.CONST>  (1) 
1

>  <SCORE.INTER.POLAR>  (1) 
-2.08528

>  <SCORE.INTER.REPUL>  (1) 
0.307313

>  <SCORE.INTER.ROT>  (1) 
4

>  <SCORE.INTER.VDW>  (1) 
-20.6577

>  <SCORE.INTER.norm>  (1) 
-0.800527

>  <SCORE.INTRA>  (1) 
0.196689

>  <SCORE.INTRA.DIHEDRAL>  (1) 
-0.223585

>  <SCORE.INTRA.DIHEDRAL.0>  (1) 
7.18538

>  <SCORE.INTRA.POLAR>  (1) 
0

>  <SCORE.INTRA.POLAR.0>  (1) 
0

>  <SCORE.INTRA.REPUL>  (1) 
0

>  <SCORE.INTRA.REPUL.0>  (1) 
0

>  <SCORE.INTRA.VDW>  (1) 
0.308481

>  <SCORE.INTRA.VDW.0>  (1) 
-0.966116

>  <SCORE.INTRA.norm>  (1) 
0.00936613

>  <SCORE.RESTR>  (1) 
0

>  <SCORE.RESTR.CAVITY>  (1) 
0

>  <SCORE.RESTR.norm>  (1) 
0

>  <SCORE.SYSTEM>  (1) 
0

>  <SCORE.SYSTEM.CONST>  (1) 
0

>  <SCORE.SYSTEM.DIHEDRAL>  (1) 
0

>  <SCORE.SYSTEM.norm>  (1) 
0

>  <SCORE.heavy>  (1) 
21

>  <SCORE.norm>  (1) 
-0.791161

>  <TETHERED ATOMS>  (1) 
12,20,21,8,13,11,17,7,6,16,9,10,15,14,19,18

>  <skeledock_score>  (1) 
123

$$$$
