C[C@H](O)COc1cccc(S(C)(=O)=O)c1
     RDKit          3D

 29 29  0  0  0  0  0  0  0  0999 V2000
  -25.4169   16.4884   28.4169 C   0  0  0  0  0  0  0  0  0  0  0  0
  -25.1002   15.1685   27.7048 C   0  0  0  0  0  0  0  0  0  0  0  0
  -26.1624   14.8010   26.8613 O   0  0  0  0  0  0  0  0  0  0  0  0
  -24.7889   14.0396   28.6991 C   0  0  0  0  0  0  0  0  0  0  0  0
  -24.4410   12.8431   27.9985 O   0  0  0  0  0  0  0  0  0  0  0  0
  -23.4385   12.7175   27.0229 C   0  0  0  0  0  0  0  0  0  0  0  0
  -23.6401   12.0523   25.7970 C   0  0  0  0  0  0  0  0  0  0  0  0
  -22.5969   11.9496   24.8724 C   0  0  0  0  0  0  0  0  0  0  0  0
  -21.3474   12.5022   25.1582 C   0  0  0  0  0  0  0  0  0  0  0  0
  -21.1339   13.1627   26.3737 C   0  0  0  0  0  0  0  0  0  0  0  0
  -19.5554   13.8408   26.7464 S   0  0  0  0  0  0  0  0  0  0  0  0
  -18.7705   12.8710   28.0100 C   0  0  0  0  0  0  0  0  0  0  0  0
  -18.7019   13.8788   25.5176 O   0  0  0  0  0  0  0  0  0  0  0  0
  -19.7070   15.2481   27.2217 O   0  0  0  0  0  0  0  0  0  0  0  0
  -22.1769   13.2575   27.3051 C   0  0  0  0  0  0  0  0  0  0  0  0
  -24.5453   16.8231   29.0183 H   0  0  0  0  0  0  0  0  0  0  0  0
  -25.6438   17.2739   27.6653 H   0  0  0  0  0  0  0  0  0  0  0  0
  -26.2961   16.3716   29.0856 H   0  0  0  0  0  0  0  0  0  0  0  0
  -24.2022   15.3278   27.0689 H   0  0  0  0  0  0  0  0  0  0  0  0
  -26.9772   14.7174   27.4233 H   0  0  0  0  0  0  0  0  0  0  0  0
  -25.7016   13.8301   29.2962 H   0  0  0  0  0  0  0  0  0  0  0  0
  -24.0082   14.3531   29.4214 H   0  0  0  0  0  0  0  0  0  0  0  0
  -24.5819   11.5834   25.5549 H   0  0  0  0  0  0  0  0  0  0  0  0
  -22.7552   11.4311   23.9355 H   0  0  0  0  0  0  0  0  0  0  0  0
  -20.5471   12.4078   24.4356 H   0  0  0  0  0  0  0  0  0  0  0  0
  -18.6438   11.8286   27.6519 H   0  0  0  0  0  0  0  0  0  0  0  0
  -19.4006   12.8722   28.9234 H   0  0  0  0  0  0  0  0  0  0  0  0
  -17.7763   13.3030   28.2470 H   0  0  0  0  0  0  0  0  0  0  0  0
  -22.0122   13.7552   28.2526 H   0  0  0  0  0  0  0  0  0  0  0  0
  1  2  1  0
  2  3  1  0
  2  4  1  0
  4  5  1  0
  5  6  1  0
  6  7  2  0
  7  8  1  0
  8  9  2  0
  9 10  1  0
 10 11  1  0
 11 12  1  0
 11 13  2  0
 11 14  2  0
 10 15  2  0
 15  6  1  0
  1 16  1  0
  1 17  1  0
  1 18  1  0
  2 19  1  0
  3 20  1  0
  4 21  1  0
  4 22  1  0
  7 23  1  0
  8 24  1  0
  9 25  1  0
 12 26  1  0
 12 27  1  0
 12 28  1  0
 15 29  1  0
M  END
>  <CHROM.1>  (1) 
-58.64297991,-177.42474847,54.15964382,-133.41770931,-108.49782260,2.78511777
-0.30013959,-2.00119864

>  <Name>  (1) 
C[C@H](O)COc1cccc(S(C)(=O)=O)c1

>  <RI>  (1) 
4.02543e+07

>  <Rbt.Current_Directory>  (1) 
/data/out

>  <Rbt.Executable>  (1) 
rbdock ($Id: //depot/dev/client3/rdock/2013.1/src/exe/rbdock.cxx#4 $)

>  <Rbt.Library>  (1) 
libRbt.so (2013.1, Build901 2013/11/27)

>  <Rbt.Parameter_File>  (1) 
/python_libraries/phenodiscovery/docking/templates/RDOCK_TETHER.conf

>  <Rbt.Receptor>  (1) 
/data/out/rdock-opt/grid/rdock-grid.prm

>  <SCORE>  (1) 
-15.6572

>  <SCORE.INTER>  (1) 
-12.3705

>  <SCORE.INTER.CONST>  (1) 
1

>  <SCORE.INTER.POLAR>  (1) 
-0.938083

>  <SCORE.INTER.REPUL>  (1) 
0

>  <SCORE.INTER.ROT>  (1) 
4

>  <SCORE.INTER.VDW>  (1) 
-18.581

>  <SCORE.INTER.norm>  (1) 
-0.824701

>  <SCORE.INTRA>  (1) 
-3.28673

>  <SCORE.INTRA.DIHEDRAL>  (1) 
-4.4139

>  <SCORE.INTRA.DIHEDRAL.0>  (1) 
8.64974

>  <SCORE.INTRA.POLAR>  (1) 
0

>  <SCORE.INTRA.POLAR.0>  (1) 
0

>  <SCORE.INTRA.REPUL>  (1) 
0

>  <SCORE.INTRA.REPUL.0>  (1) 
0

>  <SCORE.INTRA.VDW>  (1) 
-1.07978

>  <SCORE.INTRA.VDW.0>  (1) 
-1.09552

>  <SCORE.INTRA.norm>  (1) 
-0.219115

>  <SCORE.RESTR>  (1) 
0

>  <SCORE.RESTR.CAVITY>  (1) 
0

>  <SCORE.RESTR.norm>  (1) 
0

>  <SCORE.SYSTEM>  (1) 
0

>  <SCORE.SYSTEM.CONST>  (1) 
0

>  <SCORE.SYSTEM.DIHEDRAL>  (1) 
0

>  <SCORE.SYSTEM.norm>  (1) 
0

>  <SCORE.heavy>  (1) 
15

>  <SCORE.norm>  (1) 
-1.04382

>  <TETHERED ATOMS>  (1) 
6,7,8,11,10,12,9,15,14,13

>  <skeledock_score>  (1) 
70

$$$$
