Cc1nc2ccccc2n1CCC(=O)N[C@H](C)C(=O)O
     RDKit          3D

 37 38  0  0  0  0  0  0  0  0999 V2000
  -18.1074   12.9551   23.4032 C   0  0  0  0  0  0  0  0  0  0  0  0
  -19.0969   12.6749   24.4922 C   0  0  0  0  0  0  0  0  0  0  0  0
  -20.1852   11.8887   24.2886 N   0  0  0  0  0  0  0  0  0  0  0  0
  -20.8256   11.9434   25.4688 C   0  0  0  0  0  0  0  0  0  0  0  0
  -22.0572   11.3765   25.7858 C   0  0  0  0  0  0  0  0  0  0  0  0
  -22.5763   11.6133   27.0715 C   0  0  0  0  0  0  0  0  0  0  0  0
  -21.8568   12.3984   27.9995 C   0  0  0  0  0  0  0  0  0  0  0  0
  -20.6226   12.9726   27.6425 C   0  0  0  0  0  0  0  0  0  0  0  0
  -20.1401   12.7265   26.3530 C   0  0  0  0  0  0  0  0  0  0  0  0
  -19.0445   13.2165   25.7424 N   0  0  0  0  0  0  0  0  0  0  0  0
  -18.2066   14.3365   26.1855 C   0  0  0  0  0  0  0  0  0  0  0  0
  -18.9533   15.6598   26.1060 C   0  0  0  0  0  0  0  0  0  0  0  0
  -18.1025   16.7851   26.6163 C   0  0  0  0  0  0  0  0  0  0  0  0
  -18.4298   17.3837   27.6783 O   0  0  0  0  0  0  0  0  0  0  0  0
  -16.9397   17.1956   25.8849 N   0  0  0  0  0  0  0  0  0  0  0  0
  -16.0712   18.2832   26.3511 C   0  0  0  0  0  0  0  0  0  0  0  0
  -15.4369   19.0112   25.1636 C   0  0  0  0  0  0  0  0  0  0  0  0
  -14.9936   17.7568   27.2639 C   0  0  0  0  0  0  0  0  0  0  0  0
  -13.8456   18.2764   27.2656 O   0  0  0  0  0  0  0  0  0  0  0  0
  -15.2642   16.7048   28.1343 O   0  0  0  0  0  0  0  0  0  0  0  0
  -17.1151   12.5437   23.6746 H   0  0  0  0  0  0  0  0  0  0  0  0
  -18.4346   12.4717   22.4586 H   0  0  0  0  0  0  0  0  0  0  0  0
  -18.0282   14.0477   23.2286 H   0  0  0  0  0  0  0  0  0  0  0  0
  -22.6015   10.7797   25.0653 H   0  0  0  0  0  0  0  0  0  0  0  0
  -23.5303   11.1869   27.3529 H   0  0  0  0  0  0  0  0  0  0  0  0
  -22.2628   12.5690   28.9881 H   0  0  0  0  0  0  0  0  0  0  0  0
  -20.0787   13.5830   28.3501 H   0  0  0  0  0  0  0  0  0  0  0  0
  -17.8749   14.1475   27.2296 H   0  0  0  0  0  0  0  0  0  0  0  0
  -17.2838   14.4034   25.5718 H   0  0  0  0  0  0  0  0  0  0  0  0
  -19.2495   15.8419   25.0506 H   0  0  0  0  0  0  0  0  0  0  0  0
  -19.8793   15.6229   26.7128 H   0  0  0  0  0  0  0  0  0  0  0  0
  -16.7231   16.7182   24.9802 H   0  0  0  0  0  0  0  0  0  0  0  0
  -16.6901   19.0175   26.9123 H   0  0  0  0  0  0  0  0  0  0  0  0
  -16.2315   19.4100   24.4976 H   0  0  0  0  0  0  0  0  0  0  0  0
  -14.8195   19.8639   25.5189 H   0  0  0  0  0  0  0  0  0  0  0  0
  -14.7935   18.3182   24.5796 H   0  0  0  0  0  0  0  0  0  0  0  0
  -16.1768   16.2659   28.1581 H   0  0  0  0  0  0  0  0  0  0  0  0
  1  2  1  0
  2  3  2  0
  3  4  1  0
  4  5  2  0
  5  6  1  0
  6  7  2  0
  7  8  1  0
  8  9  2  0
  9 10  1  0
 10 11  1  0
 11 12  1  0
 12 13  1  0
 13 14  2  0
 13 15  1  0
 15 16  1  0
 16 17  1  0
 16 18  1  0
 18 19  2  0
 18 20  1  0
 10  2  1  0
  9  4  1  0
  1 21  1  0
  1 22  1  0
  1 23  1  0
  5 24  1  0
  6 25  1  0
  7 26  1  0
  8 27  1  0
 11 28  1  0
 11 29  1  0
 12 30  1  0
 12 31  1  0
 15 32  1  0
 16 33  1  0
 17 34  1  0
 17 35  1  0
 17 36  1  0
 20 37  1  0
M  END
>  <CHROM.1>  (1) 
94.41982467,177.62712260,-113.16117008,-149.19267345,145.58719002,1.14780596
-2.45770066,0.73408260,0.77322941

>  <Name>  (1) 
Cc1nc2ccccc2n1CCC(=O)N[C@H](C)C(=O)O

>  <RI>  (1) 
2.12932e+07

>  <Rbt.Current_Directory>  (1) 
/data/out

>  <Rbt.Executable>  (1) 
rbdock ($Id: //depot/dev/client3/rdock/2013.1/src/exe/rbdock.cxx#4 $)

>  <Rbt.Library>  (1) 
libRbt.so (2013.1, Build901 2013/11/27)

>  <Rbt.Parameter_File>  (1) 
/python_libraries/phenodiscovery/docking/templates/RDOCK_TETHER.conf

>  <Rbt.Receptor>  (1) 
/data/out/rdock-opt/grid/rdock-grid.prm

>  <SCORE>  (1) 
-16.9185

>  <SCORE.INTER>  (1) 
-15.9719

>  <SCORE.INTER.CONST>  (1) 
1

>  <SCORE.INTER.POLAR>  (1) 
-1.54337

>  <SCORE.INTER.REPUL>  (1) 
0.0755859

>  <SCORE.INTER.ROT>  (1) 
5

>  <SCORE.INTER.VDW>  (1) 
-21.5024

>  <SCORE.INTER.norm>  (1) 
-0.798596

>  <SCORE.INTRA>  (1) 
-0.946544

>  <SCORE.INTRA.DIHEDRAL>  (1) 
0.0612112

>  <SCORE.INTRA.DIHEDRAL.0>  (1) 
6.91024

>  <SCORE.INTRA.POLAR>  (1) 
0

>  <SCORE.INTRA.POLAR.0>  (1) 
0

>  <SCORE.INTRA.REPUL>  (1) 
0

>  <SCORE.INTRA.REPUL.0>  (1) 
0

>  <SCORE.INTRA.VDW>  (1) 
-0.97715

>  <SCORE.INTRA.VDW.0>  (1) 
-1.58791

>  <SCORE.INTRA.norm>  (1) 
-0.0473272

>  <SCORE.RESTR>  (1) 
0

>  <SCORE.RESTR.CAVITY>  (1) 
0

>  <SCORE.RESTR.norm>  (1) 
0

>  <SCORE.SYSTEM>  (1) 
0

>  <SCORE.SYSTEM.CONST>  (1) 
0

>  <SCORE.SYSTEM.DIHEDRAL>  (1) 
0

>  <SCORE.SYSTEM.norm>  (1) 
0

>  <SCORE.heavy>  (1) 
20

>  <SCORE.norm>  (1) 
-0.845923

>  <TETHERED ATOMS>  (1) 
10,13,11,14,15,12,9,6,5,2,4,7,1,3,8

>  <skeledock_score>  (1) 
115

$$$$
