C[C@H](NC(N)=O)C(=O)Nc1ccc(Cc2ccncc2)cc1
     RDKit          3D

 40 41  0  0  0  0  0  0  0  0999 V2000
  -14.6601   19.4574   28.1401 C   0  0  0  0  0  0  0  0  0  0  0  0
  -15.5761   19.1715   26.9490 C   0  0  0  0  0  0  0  0  0  0  0  0
  -16.7333   20.0696   26.9868 N   0  0  0  0  0  0  0  0  0  0  0  0
  -17.3050   20.6674   25.8145 C   0  0  0  0  0  0  0  0  0  0  0  0
  -18.4339   21.5315   25.9350 N   0  0  0  0  0  0  0  0  0  0  0  0
  -16.8212   20.4354   24.6740 O   0  0  0  0  0  0  0  0  0  0  0  0
  -16.0513   17.7439   26.9696 C   0  0  0  0  0  0  0  0  0  0  0  0
  -15.5916   16.9533   27.8387 O   0  0  0  0  0  0  0  0  0  0  0  0
  -17.0181   17.2874   26.0073 N   0  0  0  0  0  0  0  0  0  0  0  0
  -17.7428   16.0499   26.1236 C   0  0  0  0  0  0  0  0  0  0  0  0
  -17.9335   15.4255   27.3696 C   0  0  0  0  0  0  0  0  0  0  0  0
  -18.5841   14.1923   27.4503 C   0  0  0  0  0  0  0  0  0  0  0  0
  -19.0726   13.5718   26.2914 C   0  0  0  0  0  0  0  0  0  0  0  0
  -19.7093   12.2103   26.3691 C   0  0  0  0  0  0  0  0  0  0  0  0
  -21.1851   12.2825   26.0849 C   0  0  0  0  0  0  0  0  0  0  0  0
  -22.0460   12.9604   26.9606 C   0  0  0  0  0  0  0  0  0  0  0  0
  -23.4064   13.0492   26.6565 C   0  0  0  0  0  0  0  0  0  0  0  0
  -23.8905   12.4812   25.5202 N   0  0  0  0  0  0  0  0  0  0  0  0
  -23.0800   11.8146   24.6559 C   0  0  0  0  0  0  0  0  0  0  0  0
  -21.7132   11.7015   24.9221 C   0  0  0  0  0  0  0  0  0  0  0  0
  -18.9577   14.2323   25.0583 C   0  0  0  0  0  0  0  0  0  0  0  0
  -18.2980   15.4628   24.9763 C   0  0  0  0  0  0  0  0  0  0  0  0
  -13.7828   18.7758   28.1203 H   0  0  0  0  0  0  0  0  0  0  0  0
  -14.2926   20.5043   28.0874 H   0  0  0  0  0  0  0  0  0  0  0  0
  -15.2035   19.3205   29.0998 H   0  0  0  0  0  0  0  0  0  0  0  0
  -14.9845   19.3428   26.0240 H   0  0  0  0  0  0  0  0  0  0  0  0
  -17.1768   20.2716   27.9119 H   0  0  0  0  0  0  0  0  0  0  0  0
  -18.8564   21.9693   25.0863 H   0  0  0  0  0  0  0  0  0  0  0  0
  -18.8496   21.7355   26.8706 H   0  0  0  0  0  0  0  0  0  0  0  0
  -17.1537   17.8549   25.1401 H   0  0  0  0  0  0  0  0  0  0  0  0
  -17.5852   15.8878   28.2830 H   0  0  0  0  0  0  0  0  0  0  0  0
  -18.6929   13.7141   28.4158 H   0  0  0  0  0  0  0  0  0  0  0  0
  -19.2066   11.5302   25.6464 H   0  0  0  0  0  0  0  0  0  0  0  0
  -19.5480   11.7615   27.3738 H   0  0  0  0  0  0  0  0  0  0  0  0
  -21.6691   13.4192   27.8663 H   0  0  0  0  0  0  0  0  0  0  0  0
  -24.0781   13.5722   27.3242 H   0  0  0  0  0  0  0  0  0  0  0  0
  -23.4962   11.3741   23.7598 H   0  0  0  0  0  0  0  0  0  0  0  0
  -21.0725   11.1780   24.2239 H   0  0  0  0  0  0  0  0  0  0  0  0
  -19.3537   13.7807   24.1571 H   0  0  0  0  0  0  0  0  0  0  0  0
  -18.1903   15.9441   24.0123 H   0  0  0  0  0  0  0  0  0  0  0  0
  1  2  1  0
  2  3  1  0
  3  4  1  0
  4  5  1  0
  4  6  2  0
  2  7  1  0
  7  8  2  0
  7  9  1  0
  9 10  1  0
 10 11  2  0
 11 12  1  0
 12 13  2  0
 13 14  1  0
 14 15  1  0
 15 16  2  0
 16 17  1  0
 17 18  2  0
 18 19  1  0
 19 20  2  0
 13 21  1  0
 21 22  2  0
 22 10  1  0
 20 15  1  0
  1 23  1  0
  1 24  1  0
  1 25  1  0
  2 26  1  0
  3 27  1  0
  5 28  1  0
  5 29  1  0
  9 30  1  0
 11 31  1  0
 12 32  1  0
 14 33  1  0
 14 34  1  0
 16 35  1  0
 17 36  1  0
 19 37  1  0
 20 38  1  0
 21 39  1  0
 22 40  1  0
M  END
>  <CHROM.1>  (1) 
141.00564494,-5.53306728,23.13399229,111.42068789,-65.84369972,-2.72016539
0.57505025,1.16344272

>  <Name>  (1) 
C[C@H](NC(N)=O)C(=O)Nc1ccc(Cc2ccncc2)cc1

>  <RI>  (1) 
2.83359e+07

>  <Rbt.Current_Directory>  (1) 
/data/out

>  <Rbt.Executable>  (1) 
rbdock ($Id: //depot/dev/client3/rdock/2013.1/src/exe/rbdock.cxx#4 $)

>  <Rbt.Library>  (1) 
libRbt.so (2013.1, Build901 2013/11/27)

>  <Rbt.Parameter_File>  (1) 
/python_libraries/phenodiscovery/docking/templates/RDOCK_TETHER.conf

>  <Rbt.Receptor>  (1) 
/data/out/rdock-opt/grid/rdock-grid.prm

>  <SCORE>  (1) 
-15.8707

>  <SCORE.INTER>  (1) 
-15.1787

>  <SCORE.INTER.CONST>  (1) 
1

>  <SCORE.INTER.POLAR>  (1) 
-2.38333

>  <SCORE.INTER.REPUL>  (1) 
1.05263

>  <SCORE.INTER.ROT>  (1) 
5

>  <SCORE.INTER.VDW>  (1) 
-22.7385

>  <SCORE.INTER.norm>  (1) 
-0.689942

>  <SCORE.INTRA>  (1) 
-0.691951

>  <SCORE.INTRA.DIHEDRAL>  (1) 
-2.96112

>  <SCORE.INTRA.DIHEDRAL.0>  (1) 
7.94514

>  <SCORE.INTRA.POLAR>  (1) 
0

>  <SCORE.INTRA.POLAR.0>  (1) 
0

>  <SCORE.INTRA.REPUL>  (1) 
0

>  <SCORE.INTRA.REPUL.0>  (1) 
0

>  <SCORE.INTRA.VDW>  (1) 
0.788608

>  <SCORE.INTRA.VDW.0>  (1) 
-1.64391

>  <SCORE.INTRA.norm>  (1) 
-0.0314523

>  <SCORE.RESTR>  (1) 
0

>  <SCORE.RESTR.CAVITY>  (1) 
0

>  <SCORE.RESTR.norm>  (1) 
0

>  <SCORE.SYSTEM>  (1) 
0

>  <SCORE.SYSTEM.CONST>  (1) 
0

>  <SCORE.SYSTEM.DIHEDRAL>  (1) 
0

>  <SCORE.SYSTEM.norm>  (1) 
0

>  <SCORE.heavy>  (1) 
22

>  <SCORE.norm>  (1) 
-0.721394

>  <TETHERED ATOMS>  (1) 
14,10,18,7,9,13,15,8,1,12,22,21,11,19,17,16,20

>  <skeledock_score>  (1) 
126

$$$$
