Cc1nc2ccccc2n1CCC(=O)NCCC(C)O
     RDKit          3D

 41 42  0  0  0  0  0  0  0  0999 V2000
  -18.1740   12.8225   23.4117 C   0  0  0  0  0  0  0  0  0  0  0  0
  -19.1920   12.6341   24.4941 C   0  0  0  0  0  0  0  0  0  0  0  0
  -20.3481   11.9544   24.2817 N   0  0  0  0  0  0  0  0  0  0  0  0
  -20.9880   12.0666   25.4581 C   0  0  0  0  0  0  0  0  0  0  0  0
  -22.2697   11.6177   25.7656 C   0  0  0  0  0  0  0  0  0  0  0  0
  -22.7727   11.9001   27.0485 C   0  0  0  0  0  0  0  0  0  0  0  0
  -21.9888   12.6124   27.9831 C   0  0  0  0  0  0  0  0  0  0  0  0
  -20.7036   13.0684   27.6355 C   0  0  0  0  0  0  0  0  0  0  0  0
  -20.2376   12.7799   26.3485 C   0  0  0  0  0  0  0  0  0  0  0  0
  -19.0966   13.1655   25.7463 N   0  0  0  0  0  0  0  0  0  0  0  0
  -18.1619   14.2030   26.1964 C   0  0  0  0  0  0  0  0  0  0  0  0
  -18.7993   15.5841   26.1635 C   0  0  0  0  0  0  0  0  0  0  0  0
  -17.8295   16.6273   26.6317 C   0  0  0  0  0  0  0  0  0  0  0  0
  -18.0223   17.2109   27.7339 O   0  0  0  0  0  0  0  0  0  0  0  0
  -16.7032   16.9742   25.8171 N   0  0  0  0  0  0  0  0  0  0  0  0
  -15.6379   17.8608   26.2824 C   0  0  0  0  0  0  0  0  0  0  0  0
  -14.6693   18.2265   25.1467 C   0  0  0  0  0  0  0  0  0  0  0  0
  -15.1446   19.4381   24.3224 C   0  0  0  0  0  0  0  0  0  0  0  0
  -14.6682   20.7401   24.9654 C   0  0  0  0  0  0  0  0  0  0  0  0
  -14.6237   19.3668   23.0185 O   0  0  0  0  0  0  0  0  0  0  0  0
  -17.2285   12.3136   23.6850 H   0  0  0  0  0  0  0  0  0  0  0  0
  -18.5421   12.3793   22.4625 H   0  0  0  0  0  0  0  0  0  0  0  0
  -17.9869   13.9031   23.2445 H   0  0  0  0  0  0  0  0  0  0  0  0
  -22.8629   11.0762   25.0402 H   0  0  0  0  0  0  0  0  0  0  0  0
  -23.7646   11.5651   27.3227 H   0  0  0  0  0  0  0  0  0  0  0  0
  -22.3835   12.8189   28.9693 H   0  0  0  0  0  0  0  0  0  0  0  0
  -20.1095   13.6235   28.3482 H   0  0  0  0  0  0  0  0  0  0  0  0
  -17.8258   13.9626   27.2283 H   0  0  0  0  0  0  0  0  0  0  0  0
  -17.2491   14.2103   25.5641 H   0  0  0  0  0  0  0  0  0  0  0  0
  -19.6920   15.6202   26.8180 H   0  0  0  0  0  0  0  0  0  0  0  0
  -19.1321   15.8002   25.1254 H   0  0  0  0  0  0  0  0  0  0  0  0
  -16.6391   16.5945   24.8457 H   0  0  0  0  0  0  0  0  0  0  0  0
  -16.0848   18.7899   26.6989 H   0  0  0  0  0  0  0  0  0  0  0  0
  -15.0778   17.3653   27.1047 H   0  0  0  0  0  0  0  0  0  0  0  0
  -14.5155   17.3515   24.4786 H   0  0  0  0  0  0  0  0  0  0  0  0
  -13.6868   18.4651   25.6102 H   0  0  0  0  0  0  0  0  0  0  0  0
  -16.2616   19.4577   24.3121 H   0  0  0  0  0  0  0  0  0  0  0  0
  -13.5586   20.7621   25.0229 H   0  0  0  0  0  0  0  0  0  0  0  0
  -15.0876   20.8426   25.9891 H   0  0  0  0  0  0  0  0  0  0  0  0
  -15.0108   21.6054   24.3591 H   0  0  0  0  0  0  0  0  0  0  0  0
  -15.0246   20.1099   22.4964 H   0  0  0  0  0  0  0  0  0  0  0  0
  1  2  1  0
  2  3  2  0
  3  4  1  0
  4  5  2  0
  5  6  1  0
  6  7  2  0
  7  8  1  0
  8  9  2  0
  9 10  1  0
 10 11  1  0
 11 12  1  0
 12 13  1  0
 13 14  2  0
 13 15  1  0
 15 16  1  0
 16 17  1  0
 17 18  1  0
 18 19  1  0
 18 20  1  0
 10  2  1  0
  9  4  1  0
  1 21  1  0
  1 22  1  0
  1 23  1  0
  5 24  1  0
  6 25  1  0
  7 26  1  0
  8 27  1  0
 11 28  1  0
 11 29  1  0
 12 30  1  0
 12 31  1  0
 15 32  1  0
 16 33  1  0
 16 34  1  0
 17 35  1  0
 17 36  1  0
 18 37  1  0
 19 38  1  0
 19 39  1  0
 19 40  1  0
 20 41  1  0
M  END
>  <CHROM.1>  (1) 
96.40877889,179.78923273,-110.87652290,-171.61974712,85.90494945,86.88132991
174.36954836,-2.54450481,0.66812297,0.83560681

>  <Name>  (1) 
Cc1nc2ccccc2n1CCC(=O)NCCC(C)O

>  <RI>  (1) 
2.08304e+07

>  <Rbt.Current_Directory>  (1) 
/data/out

>  <Rbt.Executable>  (1) 
rbdock ($Id: //depot/dev/client3/rdock/2013.1/src/exe/rbdock.cxx#4 $)

>  <Rbt.Library>  (1) 
libRbt.so (2013.1, Build901 2013/11/27)

>  <Rbt.Parameter_File>  (1) 
/python_libraries/phenodiscovery/docking/templates/RDOCK_TETHER.conf

>  <Rbt.Receptor>  (1) 
/data/out/rdock-opt/grid/rdock-grid.prm

>  <SCORE>  (1) 
-21.6979

>  <SCORE.INTER>  (1) 
-21.0404

>  <SCORE.INTER.CONST>  (1) 
1

>  <SCORE.INTER.POLAR>  (1) 
-2.94342

>  <SCORE.INTER.REPUL>  (1) 
0.212766

>  <SCORE.INTER.ROT>  (1) 
6

>  <SCORE.INTER.VDW>  (1) 
-23.4966

>  <SCORE.INTER.norm>  (1) 
-1.05202

>  <SCORE.INTRA>  (1) 
-0.657461

>  <SCORE.INTRA.DIHEDRAL>  (1) 
-2.34487

>  <SCORE.INTRA.DIHEDRAL.0>  (1) 
12.8879

>  <SCORE.INTRA.POLAR>  (1) 
0

>  <SCORE.INTRA.POLAR.0>  (1) 
0

>  <SCORE.INTRA.REPUL>  (1) 
0

>  <SCORE.INTRA.REPUL.0>  (1) 
0

>  <SCORE.INTRA.VDW>  (1) 
0.514975

>  <SCORE.INTRA.VDW.0>  (1) 
-0.854251

>  <SCORE.INTRA.norm>  (1) 
-0.0328731

>  <SCORE.RESTR>  (1) 
0

>  <SCORE.RESTR.CAVITY>  (1) 
0

>  <SCORE.RESTR.norm>  (1) 
0

>  <SCORE.SYSTEM>  (1) 
0

>  <SCORE.SYSTEM.CONST>  (1) 
0

>  <SCORE.SYSTEM.DIHEDRAL>  (1) 
0

>  <SCORE.SYSTEM.norm>  (1) 
0

>  <SCORE.heavy>  (1) 
20

>  <SCORE.norm>  (1) 
-1.08489

>  <TETHERED ATOMS>  (1) 
10,13,11,14,15,12,9,6,5,2,4,7,1,3,8

>  <skeledock_score>  (1) 
115

$$$$
