NC(CO)C(=O)N1CCN(c2ccc(F)cc2)CC1
     RDKit          3D

 37 38  0  0  0  0  0  0  0  0999 V2000
  -15.9620   18.5280   26.0314 N   0  0  0  0  0  0  0  0  0  0  0  0
  -16.5322   17.5352   26.9457 C   0  0  0  0  0  0  0  0  0  0  0  0
  -16.0790   17.8124   28.3865 C   0  0  0  0  0  0  0  0  0  0  0  0
  -14.6799   17.7731   28.4771 O   0  0  0  0  0  0  0  0  0  0  0  0
  -16.1405   16.1350   26.5291 C   0  0  0  0  0  0  0  0  0  0  0  0
  -14.9338   15.8873   26.2532 O   0  0  0  0  0  0  0  0  0  0  0  0
  -17.1271   15.0937   26.4083 N   0  0  0  0  0  0  0  0  0  0  0  0
  -17.9219   15.0093   25.1718 C   0  0  0  0  0  0  0  0  0  0  0  0
  -18.4644   13.5951   24.9666 C   0  0  0  0  0  0  0  0  0  0  0  0
  -19.0820   13.1258   26.2078 N   0  0  0  0  0  0  0  0  0  0  0  0
  -20.4723   12.7588   26.2484 C   0  0  0  0  0  0  0  0  0  0  0  0
  -21.3004   13.2380   27.2770 C   0  0  0  0  0  0  0  0  0  0  0  0
  -22.6357   12.8322   27.3542 C   0  0  0  0  0  0  0  0  0  0  0  0
  -23.1528   11.9422   26.4086 C   0  0  0  0  0  0  0  0  0  0  0  0
  -24.4375   11.5211   26.5066 F   0  0  0  0  0  0  0  0  0  0  0  0
  -22.3404   11.4742   25.3716 C   0  0  0  0  0  0  0  0  0  0  0  0
  -21.0056   11.8817   25.2887 C   0  0  0  0  0  0  0  0  0  0  0  0
  -18.2557   13.1358   27.4157 C   0  0  0  0  0  0  0  0  0  0  0  0
  -17.6947   14.5378   27.6463 C   0  0  0  0  0  0  0  0  0  0  0  0
  -16.0612   18.1966   25.0437 H   0  0  0  0  0  0  0  0  0  0  0  0
  -16.5062   19.4172   26.1205 H   0  0  0  0  0  0  0  0  0  0  0  0
  -17.6384   17.6359   26.9057 H   0  0  0  0  0  0  0  0  0  0  0  0
  -16.5382   17.0817   29.0923 H   0  0  0  0  0  0  0  0  0  0  0  0
  -16.4167   18.8268   28.6893 H   0  0  0  0  0  0  0  0  0  0  0  0
  -14.4486   17.9640   29.4235 H   0  0  0  0  0  0  0  0  0  0  0  0
  -17.3226   15.2908   24.2817 H   0  0  0  0  0  0  0  0  0  0  0  0
  -18.7745   15.7191   25.2437 H   0  0  0  0  0  0  0  0  0  0  0  0
  -17.6309   12.9132   24.6910 H   0  0  0  0  0  0  0  0  0  0  0  0
  -19.1964   13.6054   24.1297 H   0  0  0  0  0  0  0  0  0  0  0  0
  -20.9086   13.9209   28.0203 H   0  0  0  0  0  0  0  0  0  0  0  0
  -23.2652   13.1978   28.1553 H   0  0  0  0  0  0  0  0  0  0  0  0
  -22.7402   10.7843   24.6396 H   0  0  0  0  0  0  0  0  0  0  0  0
  -20.3800   11.4894   24.4971 H   0  0  0  0  0  0  0  0  0  0  0  0
  -17.4133   12.4230   27.2823 H   0  0  0  0  0  0  0  0  0  0  0  0
  -18.8349   12.8085   28.3061 H   0  0  0  0  0  0  0  0  0  0  0  0
  -18.5095   15.2041   28.0041 H   0  0  0  0  0  0  0  0  0  0  0  0
  -16.9154   14.4815   28.4381 H   0  0  0  0  0  0  0  0  0  0  0  0
  1  2  1  0
  2  3  1  0
  3  4  1  0
  2  5  1  0
  5  6  2  0
  5  7  1  0
  7  8  1  0
  8  9  1  0
  9 10  1  0
 10 11  1  0
 11 12  2  0
 12 13  1  0
 13 14  2  0
 14 15  1  0
 14 16  1  0
 16 17  2  0
 10 18  1  0
 18 19  1  0
 19  7  1  0
 17 11  1  0
  1 20  1  0
  1 21  1  0
  2 22  1  0
  3 23  1  0
  3 24  1  0
  4 25  1  0
  8 26  1  0
  8 27  1  0
  9 28  1  0
  9 29  1  0
 12 30  1  0
 13 31  1  0
 16 32  1  0
 17 33  1  0
 18 34  1  0
 18 35  1  0
 19 36  1  0
 19 37  1  0
M  END
>  <CHROM.1>  (1) 
165.19681279,-59.10274750,179.64293085,47.67806344,82.06109780,-132.60024651
-0.16043300,-0.44722771,-1.93504076

>  <Name>  (1) 
NC(CO)C(=O)N1CCN(c2ccc(F)cc2)CC1

>  <RI>  (1) 
0

>  <Rbt.Current_Directory>  (1) 
/data/out

>  <Rbt.Executable>  (1) 
rbdock ($Id: //depot/dev/client3/rdock/2013.1/src/exe/rbdock.cxx#4 $)

>  <Rbt.Library>  (1) 
libRbt.so (2013.1, Build901 2013/11/27)

>  <Rbt.Parameter_File>  (1) 
/python_libraries/phenodiscovery/docking/templates/RDOCK_TETHER.conf

>  <Rbt.Receptor>  (1) 
/data/out/rdock-opt/grid/rdock-grid.prm

>  <SCORE>  (1) 
-15.4491

>  <SCORE.INTER>  (1) 
-13.2136

>  <SCORE.INTER.CONST>  (1) 
1

>  <SCORE.INTER.POLAR>  (1) 
-1.64237

>  <SCORE.INTER.REPUL>  (1) 
0

>  <SCORE.INTER.ROT>  (1) 
5

>  <SCORE.INTER.VDW>  (1) 
-18.0296

>  <SCORE.INTER.norm>  (1) 
-0.695455

>  <SCORE.INTRA>  (1) 
-2.23541

>  <SCORE.INTRA.DIHEDRAL>  (1) 
-2.55621

>  <SCORE.INTRA.DIHEDRAL.0>  (1) 
12.4702

>  <SCORE.INTRA.POLAR>  (1) 
0

>  <SCORE.INTRA.POLAR.0>  (1) 
0

>  <SCORE.INTRA.REPUL>  (1) 
0

>  <SCORE.INTRA.REPUL.0>  (1) 
0

>  <SCORE.INTRA.VDW>  (1) 
-0.957307

>  <SCORE.INTRA.VDW.0>  (1) 
-2.00799

>  <SCORE.INTRA.norm>  (1) 
-0.117653

>  <SCORE.RESTR>  (1) 
0

>  <SCORE.RESTR.CAVITY>  (1) 
0

>  <SCORE.RESTR.norm>  (1) 
0

>  <SCORE.SYSTEM>  (1) 
0

>  <SCORE.SYSTEM.CONST>  (1) 
0

>  <SCORE.SYSTEM.DIHEDRAL>  (1) 
0

>  <SCORE.SYSTEM.norm>  (1) 
0

>  <SCORE.heavy>  (1) 
19

>  <SCORE.norm>  (1) 
-0.813108

>  <TETHERED ATOMS>  (1) 
10,9,8,15,18,11,5,7,19,6,14,13,16,17,12

>  <skeledock_score>  (1) 
113

$$$$
