Cc1nc2ccccc2n1CCC(=O)NCC(N)=O
     RDKit          3D

 35 36  0  0  0  0  0  0  0  0999 V2000
  -17.8597   13.1697   23.9958 C   0  0  0  0  0  0  0  0  0  0  0  0
  -19.1308   12.9268   24.7528 C   0  0  0  0  0  0  0  0  0  0  0  0
  -20.1864   12.2890   24.1839 N   0  0  0  0  0  0  0  0  0  0  0  0
  -21.1176   12.3143   25.1534 C   0  0  0  0  0  0  0  0  0  0  0  0
  -22.4134   11.8076   25.0932 C   0  0  0  0  0  0  0  0  0  0  0  0
  -23.2330   11.9704   26.2249 C   0  0  0  0  0  0  0  0  0  0  0  0
  -22.7427   12.6302   27.3746 C   0  0  0  0  0  0  0  0  0  0  0  0
  -21.4271   13.1305   27.4042 C   0  0  0  0  0  0  0  0  0  0  0  0
  -20.6385   12.9468   26.2648 C   0  0  0  0  0  0  0  0  0  0  0  0
  -19.3693   13.3294   26.0333 N   0  0  0  0  0  0  0  0  0  0  0  0
  -18.4693   14.0553   26.9341 C   0  0  0  0  0  0  0  0  0  0  0  0
  -18.5779   15.5659   26.6970 C   0  0  0  0  0  0  0  0  0  0  0  0
  -17.2384   16.2299   26.8303 C   0  0  0  0  0  0  0  0  0  0  0  0
  -16.6608   16.2415   27.9515 O   0  0  0  0  0  0  0  0  0  0  0  0
  -16.6201   16.8486   25.6933 N   0  0  0  0  0  0  0  0  0  0  0  0
  -15.3395   17.5459   25.7810 C   0  0  0  0  0  0  0  0  0  0  0  0
  -15.1757   18.4839   24.6240 C   0  0  0  0  0  0  0  0  0  0  0  0
  -16.1034   19.5497   24.4237 N   0  0  0  0  0  0  0  0  0  0  0  0
  -14.2127   18.3346   23.8256 O   0  0  0  0  0  0  0  0  0  0  0  0
  -18.0929   13.7127   23.0565 H   0  0  0  0  0  0  0  0  0  0  0  0
  -17.1342   13.7762   24.5715 H   0  0  0  0  0  0  0  0  0  0  0  0
  -17.3919   12.1960   23.7418 H   0  0  0  0  0  0  0  0  0  0  0  0
  -22.7804   11.3108   24.2045 H   0  0  0  0  0  0  0  0  0  0  0  0
  -24.2466   11.5911   26.2135 H   0  0  0  0  0  0  0  0  0  0  0  0
  -23.3837   12.7536   28.2378 H   0  0  0  0  0  0  0  0  0  0  0  0
  -21.0531   13.6428   28.2801 H   0  0  0  0  0  0  0  0  0  0  0  0
  -17.4265   13.7052   26.7769 H   0  0  0  0  0  0  0  0  0  0  0  0
  -18.7167   13.8214   27.9910 H   0  0  0  0  0  0  0  0  0  0  0  0
  -19.2834   16.0077   27.4327 H   0  0  0  0  0  0  0  0  0  0  0  0
  -18.9811   15.7580   25.6784 H   0  0  0  0  0  0  0  0  0  0  0  0
  -17.1129   16.8311   24.7722 H   0  0  0  0  0  0  0  0  0  0  0  0
  -15.3006   18.1334   26.7231 H   0  0  0  0  0  0  0  0  0  0  0  0
  -14.5113   16.8044   25.8069 H   0  0  0  0  0  0  0  0  0  0  0  0
  -15.9905   20.2025   23.6166 H   0  0  0  0  0  0  0  0  0  0  0  0
  -16.9034   19.6886   25.0803 H   0  0  0  0  0  0  0  0  0  0  0  0
  1  2  1  0
  2  3  2  0
  3  4  1  0
  4  5  2  0
  5  6  1  0
  6  7  2  0
  7  8  1  0
  8  9  2  0
  9 10  1  0
 10 11  1  0
 11 12  1  0
 12 13  1  0
 13 14  2  0
 13 15  1  0
 15 16  1  0
 16 17  1  0
 17 18  1  0
 17 19  2  0
 10  2  1  0
  9  4  1  0
  1 20  1  0
  1 21  1  0
  1 22  1  0
  5 23  1  0
  6 24  1  0
  7 25  1  0
  8 26  1  0
 11 27  1  0
 11 28  1  0
 12 29  1  0
 12 30  1  0
 15 31  1  0
 16 32  1  0
 16 33  1  0
 18 34  1  0
 18 35  1  0
M  END
>  <CHROM.1>  (1) 
85.55547430,-142.76222622,-65.46703681,-159.74616944,60.56630275,-2.69354473
0.51559650,1.00908289

>  <Name>  (1) 
Cc1nc2ccccc2n1CCC(=O)NCC(N)=O

>  <RI>  (1) 
3.74479e+07

>  <Rbt.Current_Directory>  (1) 
/data/out

>  <Rbt.Executable>  (1) 
rbdock ($Id: //depot/dev/client3/rdock/2013.1/src/exe/rbdock.cxx#4 $)

>  <Rbt.Library>  (1) 
libRbt.so (2013.1, Build901 2013/11/27)

>  <Rbt.Parameter_File>  (1) 
/python_libraries/phenodiscovery/docking/templates/RDOCK_TETHER.conf

>  <Rbt.Receptor>  (1) 
/data/out/rdock-opt/grid/rdock-grid.prm

>  <SCORE>  (1) 
-15.365

>  <SCORE.INTER>  (1) 
-18.3886

>  <SCORE.INTER.CONST>  (1) 
1

>  <SCORE.INTER.POLAR>  (1) 
-2.24562

>  <SCORE.INTER.REPUL>  (1) 
0.0141076

>  <SCORE.INTER.ROT>  (1) 
5

>  <SCORE.INTER.VDW>  (1) 
-21.224

>  <SCORE.INTER.norm>  (1) 
-0.967821

>  <SCORE.INTRA>  (1) 
3.02361

>  <SCORE.INTRA.DIHEDRAL>  (1) 
4.19194

>  <SCORE.INTRA.DIHEDRAL.0>  (1) 
7.4297

>  <SCORE.INTRA.POLAR>  (1) 
0

>  <SCORE.INTRA.POLAR.0>  (1) 
0

>  <SCORE.INTRA.REPUL>  (1) 
0

>  <SCORE.INTRA.REPUL.0>  (1) 
0

>  <SCORE.INTRA.VDW>  (1) 
0.927639

>  <SCORE.INTRA.VDW.0>  (1) 
-1.42602

>  <SCORE.INTRA.norm>  (1) 
0.159137

>  <SCORE.RESTR>  (1) 
0

>  <SCORE.RESTR.CAVITY>  (1) 
0

>  <SCORE.RESTR.norm>  (1) 
0

>  <SCORE.SYSTEM>  (1) 
0

>  <SCORE.SYSTEM.CONST>  (1) 
0

>  <SCORE.SYSTEM.DIHEDRAL>  (1) 
0

>  <SCORE.SYSTEM.norm>  (1) 
0

>  <SCORE.heavy>  (1) 
19

>  <SCORE.norm>  (1) 
-0.808684

>  <TETHERED ATOMS>  (1) 
10,13,11,14,15,12,9,6,5,2,4,7,1,3,8

>  <skeledock_score>  (1) 
115

$$$$
