COCc1cccc(NCc2cc[nH]n2)c1
     RDKit          3D

 31 32  0  0  0  0  0  0  0  0999 V2000
  -26.3706   15.6632   27.8734 C   0  0  0  0  0  0  0  0  0  0  0  0
  -25.3458   14.9909   27.1736 O   0  0  0  0  0  0  0  0  0  0  0  0
  -25.0002   13.7946   27.8452 C   0  0  0  0  0  0  0  0  0  0  0  0
  -23.7789   13.1694   27.2230 C   0  0  0  0  0  0  0  0  0  0  0  0
  -23.8742   12.5346   25.9742 C   0  0  0  0  0  0  0  0  0  0  0  0
  -22.7439   11.9604   25.3887 C   0  0  0  0  0  0  0  0  0  0  0  0
  -21.5175   11.9993   26.0519 C   0  0  0  0  0  0  0  0  0  0  0  0
  -21.4057   12.6292   27.2965 C   0  0  0  0  0  0  0  0  0  0  0  0
  -20.1525   12.5847   27.9879 N   0  0  0  0  0  0  0  0  0  0  0  0
  -18.8733   12.4733   27.2989 C   0  0  0  0  0  0  0  0  0  0  0  0
  -18.7656   13.4978   26.2116 C   0  0  0  0  0  0  0  0  0  0  0  0
  -18.4181   13.2647   24.8924 C   0  0  0  0  0  0  0  0  0  0  0  0
  -18.4167   14.5172   24.3163 C   0  0  0  0  0  0  0  0  0  0  0  0
  -18.7366   15.4243   25.2561 N   0  0  0  0  0  0  0  0  0  0  0  0
  -18.9482   14.8161   26.4114 N   0  0  0  0  0  0  0  0  0  0  0  0
  -22.5367   13.2212   27.8799 C   0  0  0  0  0  0  0  0  0  0  0  0
  -26.5711   16.6285   27.3651 H   0  0  0  0  0  0  0  0  0  0  0  0
  -26.0696   15.8912   28.9201 H   0  0  0  0  0  0  0  0  0  0  0  0
  -27.3138   15.0738   27.8603 H   0  0  0  0  0  0  0  0  0  0  0  0
  -24.8741   13.9445   28.9438 H   0  0  0  0  0  0  0  0  0  0  0  0
  -25.8447   13.0819   27.7359 H   0  0  0  0  0  0  0  0  0  0  0  0
  -24.8233   12.4897   25.4543 H   0  0  0  0  0  0  0  0  0  0  0  0
  -22.8224   11.4732   24.4254 H   0  0  0  0  0  0  0  0  0  0  0  0
  -20.6513   11.5338   25.5982 H   0  0  0  0  0  0  0  0  0  0  0  0
  -20.1656   12.3600   29.0089 H   0  0  0  0  0  0  0  0  0  0  0  0
  -18.0383   12.5851   28.0228 H   0  0  0  0  0  0  0  0  0  0  0  0
  -18.7942   11.4648   26.8396 H   0  0  0  0  0  0  0  0  0  0  0  0
  -18.1943   12.3175   24.4199 H   0  0  0  0  0  0  0  0  0  0  0  0
  -18.1913   14.7515   23.2845 H   0  0  0  0  0  0  0  0  0  0  0  0
  -18.8099   16.4557   25.1137 H   0  0  0  0  0  0  0  0  0  0  0  0
  -22.4530   13.6955   28.8497 H   0  0  0  0  0  0  0  0  0  0  0  0
  1  2  1  0
  2  3  1  0
  3  4  1  0
  4  5  2  0
  5  6  1  0
  6  7  2  0
  7  8  1  0
  8  9  1  0
  9 10  1  0
 10 11  1  0
 11 12  1  0
 12 13  2  0
 13 14  1  0
 14 15  1  0
  8 16  2  0
 16  4  1  0
 15 11  2  0
  1 17  1  0
  1 18  1  0
  1 19  1  0
  3 20  1  0
  3 21  1  0
  5 22  1  0
  6 23  1  0
  7 24  1  0
  9 25  1  0
 10 26  1  0
 10 27  1  0
 12 28  1  0
 13 29  1  0
 14 30  1  0
 16 31  1  0
M  END
>  <CHROM.1>  (1) 
-171.85689537,-73.29622444,28.09806479,50.39459795,-129.02339311,-2.77400211
-0.24514011,-1.19753497

>  <Name>  (1) 
COCc1cccc(NCc2cc[nH]n2)c1

>  <RI>  (1) 
1.83244e+07

>  <Rbt.Current_Directory>  (1) 
/data/out

>  <Rbt.Executable>  (1) 
rbdock ($Id: //depot/dev/client3/rdock/2013.1/src/exe/rbdock.cxx#4 $)

>  <Rbt.Library>  (1) 
libRbt.so (2013.1, Build901 2013/11/27)

>  <Rbt.Parameter_File>  (1) 
/python_libraries/phenodiscovery/docking/templates/RDOCK_TETHER.conf

>  <Rbt.Receptor>  (1) 
/data/out/rdock-opt/grid/rdock-grid.prm

>  <SCORE>  (1) 
-15.5967

>  <SCORE.INTER>  (1) 
-14.6638

>  <SCORE.INTER.CONST>  (1) 
1

>  <SCORE.INTER.POLAR>  (1) 
-0.916515

>  <SCORE.INTER.REPUL>  (1) 
0

>  <SCORE.INTER.ROT>  (1) 
5

>  <SCORE.INTER.VDW>  (1) 
-21.9476

>  <SCORE.INTER.norm>  (1) 
-0.916486

>  <SCORE.INTRA>  (1) 
-0.932939

>  <SCORE.INTRA.DIHEDRAL>  (1) 
-6.56282

>  <SCORE.INTRA.DIHEDRAL.0>  (1) 
15.7007

>  <SCORE.INTRA.POLAR>  (1) 
0

>  <SCORE.INTRA.POLAR.0>  (1) 
0

>  <SCORE.INTRA.REPUL>  (1) 
0

>  <SCORE.INTRA.REPUL.0>  (1) 
0

>  <SCORE.INTRA.VDW>  (1) 
2.34847

>  <SCORE.INTRA.VDW.0>  (1) 
-1.71974

>  <SCORE.INTRA.norm>  (1) 
-0.0583087

>  <SCORE.RESTR>  (1) 
0

>  <SCORE.RESTR.CAVITY>  (1) 
0

>  <SCORE.RESTR.norm>  (1) 
0

>  <SCORE.SYSTEM>  (1) 
0

>  <SCORE.SYSTEM.CONST>  (1) 
0

>  <SCORE.SYSTEM.DIHEDRAL>  (1) 
0

>  <SCORE.SYSTEM.norm>  (1) 
0

>  <SCORE.heavy>  (1) 
16

>  <SCORE.norm>  (1) 
-0.974794

>  <TETHERED ATOMS>  (1) 
9,8,14,15,11,13,12,10,5,7,6,4,16

>  <skeledock_score>  (1) 
94

$$$$
