CNS(=O)(=O)c1ccc(C(=O)N2CCNCC2)o1
     RDKit          3D

 33 34  0  0  0  0  0  0  0  0999 V2000
  -26.3231   15.7512   28.0387 C   0  0  0  0  0  0  0  0  0  0  0  0
  -25.4114   14.9912   27.1868 N   0  0  0  0  0  0  0  0  0  0  0  0
  -24.3049   14.0845   28.1729 S   0  0  0  0  0  0  0  0  0  0  0  0
  -23.4325   15.0351   28.9427 O   0  0  0  0  0  0  0  0  0  0  0  0
  -25.0691   13.2344   29.1496 O   0  0  0  0  0  0  0  0  0  0  0  0
  -23.2855   13.0651   27.1737 C   0  0  0  0  0  0  0  0  0  0  0  0
  -23.6662   11.8844   26.5743 C   0  0  0  0  0  0  0  0  0  0  0  0
  -22.5537   11.4428   25.8891 C   0  0  0  0  0  0  0  0  0  0  0  0
  -21.5665   12.3866   26.1143 C   0  0  0  0  0  0  0  0  0  0  0  0
  -20.1975   12.3450   25.5551 C   0  0  0  0  0  0  0  0  0  0  0  0
  -19.8906   11.3767   24.8068 O   0  0  0  0  0  0  0  0  0  0  0  0
  -19.2218   13.3808   25.8148 N   0  0  0  0  0  0  0  0  0  0  0  0
  -19.3774   14.3121   26.9417 C   0  0  0  0  0  0  0  0  0  0  0  0
  -18.1902   15.2696   27.0367 C   0  0  0  0  0  0  0  0  0  0  0  0
  -17.9129   15.8803   25.7308 N   0  0  0  0  0  0  0  0  0  0  0  0
  -17.6595   14.9015   24.6510 C   0  0  0  0  0  0  0  0  0  0  0  0
  -17.9875   13.4431   25.0204 C   0  0  0  0  0  0  0  0  0  0  0  0
  -22.0377   13.3398   26.8849 O   0  0  0  0  0  0  0  0  0  0  0  0
  -27.0182   16.3358   27.4001 H   0  0  0  0  0  0  0  0  0  0  0  0
  -25.7559   16.4660   28.6718 H   0  0  0  0  0  0  0  0  0  0  0  0
  -26.9255   15.0734   28.6821 H   0  0  0  0  0  0  0  0  0  0  0  0
  -25.9806   14.2987   26.6479 H   0  0  0  0  0  0  0  0  0  0  0  0
  -24.6348   11.4052   26.6239 H   0  0  0  0  0  0  0  0  0  0  0  0
  -22.4780   10.5440   25.2912 H   0  0  0  0  0  0  0  0  0  0  0  0
  -20.2791   14.9391   26.7825 H   0  0  0  0  0  0  0  0  0  0  0  0
  -19.4782   13.7462   27.8929 H   0  0  0  0  0  0  0  0  0  0  0  0
  -18.4156   16.0671   27.7778 H   0  0  0  0  0  0  0  0  0  0  0  0
  -17.2882   14.7279   27.3969 H   0  0  0  0  0  0  0  0  0  0  0  0
  -18.7359   16.4721   25.4658 H   0  0  0  0  0  0  0  0  0  0  0  0
  -16.5892   14.9625   24.3611 H   0  0  0  0  0  0  0  0  0  0  0  0
  -18.2530   15.1800   23.7511 H   0  0  0  0  0  0  0  0  0  0  0  0
  -18.0762   12.8569   24.0803 H   0  0  0  0  0  0  0  0  0  0  0  0
  -17.1529   13.0081   25.6119 H   0  0  0  0  0  0  0  0  0  0  0  0
  1  2  1  0
  2  3  1  0
  3  4  2  0
  3  5  2  0
  3  6  1  0
  6  7  2  0
  7  8  1  0
  8  9  2  0
  9 10  1  0
 10 11  2  0
 10 12  1  0
 12 13  1  0
 13 14  1  0
 14 15  1  0
 15 16  1  0
 16 17  1  0
  9 18  1  0
 18  6  1  0
 17 12  1  0
  1 19  1  0
  1 20  1  0
  1 21  1  0
  2 22  1  0
  7 23  1  0
  8 24  1  0
 13 25  1  0
 13 26  1  0
 14 27  1  0
 14 28  1  0
 15 29  1  0
 16 30  1  0
 16 31  1  0
 17 32  1  0
 17 33  1  0
M  END
>  <CHROM.1>  (1) 
-64.87735539,-76.24677236,0.16174553,-2.80169923,0.41680176,0.57059856

>  <Name>  (1) 
CNS(=O)(=O)c1ccc(C(=O)N2CCNCC2)o1

>  <RI>  (1) 
2.48186e+07

>  <Rbt.Current_Directory>  (1) 
/data/out

>  <Rbt.Executable>  (1) 
rbdock ($Id: //depot/dev/client3/rdock/2013.1/src/exe/rbdock.cxx#4 $)

>  <Rbt.Library>  (1) 
libRbt.so (2013.1, Build901 2013/11/27)

>  <Rbt.Parameter_File>  (1) 
/python_libraries/phenodiscovery/docking/templates/RDOCK_TETHER.conf

>  <Rbt.Receptor>  (1) 
/data/out/rdock-opt/grid/rdock-grid.prm

>  <SCORE>  (1) 
-19.0688

>  <SCORE.INTER>  (1) 
-19.4358

>  <SCORE.INTER.CONST>  (1) 
1

>  <SCORE.INTER.POLAR>  (1) 
-2.21052

>  <SCORE.INTER.REPUL>  (1) 
0.0201436

>  <SCORE.INTER.ROT>  (1) 
3

>  <SCORE.INTER.VDW>  (1) 
-20.4207

>  <SCORE.INTER.norm>  (1) 
-1.07977

>  <SCORE.INTRA>  (1) 
0.366992

>  <SCORE.INTRA.DIHEDRAL>  (1) 
-0.0011093

>  <SCORE.INTRA.DIHEDRAL.0>  (1) 
1.21352

>  <SCORE.INTRA.POLAR>  (1) 
0

>  <SCORE.INTRA.POLAR.0>  (1) 
0

>  <SCORE.INTRA.REPUL>  (1) 
0

>  <SCORE.INTRA.REPUL.0>  (1) 
0

>  <SCORE.INTRA.VDW>  (1) 
0.367547

>  <SCORE.INTRA.VDW.0>  (1) 
-1.9471

>  <SCORE.INTRA.norm>  (1) 
0.0203885

>  <SCORE.RESTR>  (1) 
0

>  <SCORE.RESTR.CAVITY>  (1) 
0

>  <SCORE.RESTR.norm>  (1) 
0

>  <SCORE.SYSTEM>  (1) 
0

>  <SCORE.SYSTEM.CONST>  (1) 
0

>  <SCORE.SYSTEM.DIHEDRAL>  (1) 
0

>  <SCORE.SYSTEM.norm>  (1) 
0

>  <SCORE.heavy>  (1) 
18

>  <SCORE.norm>  (1) 
-1.05938

>  <TETHERED ATOMS>  (1) 
11,10,12,15,9,6,8,7,18,17,13,16,14

>  <skeledock_score>  (1) 
90

$$$$
