O=C(CSS(=O)(=O)O)N1CCN(C(=O)c2ccco2)CC1
     RDKit          3D

 35 36  0  0  0  0  0  0  0  0999 V2000
  -16.3567   16.3296   28.4848 O   0  0  0  0  0  0  0  0  0  0  0  0
  -16.7234   16.3372   27.2780 C   0  0  0  0  0  0  0  0  0  0  0  0
  -16.4168   17.5599   26.4552 C   0  0  0  0  0  0  0  0  0  0  0  0
  -14.8099   17.3732   25.6079 S   0  0  0  0  0  0  0  0  0  0  0  0
  -14.7493   19.3258   24.8347 S   0  0  0  0  0  0  0  0  0  0  0  0
  -16.0100   20.0590   25.1970 O   0  0  0  0  0  0  0  0  0  0  0  0
  -13.5722   20.0420   25.4334 O   0  0  0  0  0  0  0  0  0  0  0  0
  -14.5680   19.2753   23.1639 O   0  0  0  0  0  0  0  0  0  0  0  0
  -17.4335   15.1995   26.7403 N   0  0  0  0  0  0  0  0  0  0  0  0
  -17.9386   14.1661   27.6556 C   0  0  0  0  0  0  0  0  0  0  0  0
  -19.2896   13.6450   27.1733 C   0  0  0  0  0  0  0  0  0  0  0  0
  -19.2826   13.3314   25.7350 N   0  0  0  0  0  0  0  0  0  0  0  0
  -20.4314   12.7226   25.1025 C   0  0  0  0  0  0  0  0  0  0  0  0
  -20.3015   12.1769   23.9727 O   0  0  0  0  0  0  0  0  0  0  0  0
  -21.7745   12.7318   25.7241 C   0  0  0  0  0  0  0  0  0  0  0  0
  -22.7896   11.8348   25.4508 C   0  0  0  0  0  0  0  0  0  0  0  0
  -23.8566   12.2255   26.2312 C   0  0  0  0  0  0  0  0  0  0  0  0
  -23.4321   13.3333   26.9328 C   0  0  0  0  0  0  0  0  0  0  0  0
  -22.1914   13.6086   26.6088 O   0  0  0  0  0  0  0  0  0  0  0  0
  -18.0679   13.5948   24.9499 C   0  0  0  0  0  0  0  0  0  0  0  0
  -17.5233   14.9857   25.2862 C   0  0  0  0  0  0  0  0  0  0  0  0
  -16.4248   18.4968   27.0434 H   0  0  0  0  0  0  0  0  0  0  0  0
  -17.2027   17.6627   25.6783 H   0  0  0  0  0  0  0  0  0  0  0  0
  -15.0262   20.0885   22.8322 H   0  0  0  0  0  0  0  0  0  0  0  0
  -18.0695   14.5663   28.6846 H   0  0  0  0  0  0  0  0  0  0  0  0
  -17.2079   13.3298   27.7018 H   0  0  0  0  0  0  0  0  0  0  0  0
  -19.5604   12.7391   27.7576 H   0  0  0  0  0  0  0  0  0  0  0  0
  -20.0304   14.4483   27.3683 H   0  0  0  0  0  0  0  0  0  0  0  0
  -22.7612   10.9991   24.7639 H   0  0  0  0  0  0  0  0  0  0  0  0
  -24.8305   11.7577   26.2819 H   0  0  0  0  0  0  0  0  0  0  0  0
  -24.0190   13.8994   27.6435 H   0  0  0  0  0  0  0  0  0  0  0  0
  -18.2707   13.5554   23.8579 H   0  0  0  0  0  0  0  0  0  0  0  0
  -17.3039   12.8229   25.1863 H   0  0  0  0  0  0  0  0  0  0  0  0
  -18.2029   15.7461   24.8462 H   0  0  0  0  0  0  0  0  0  0  0  0
  -16.5165   15.0904   24.8268 H   0  0  0  0  0  0  0  0  0  0  0  0
  1  2  2  0
  2  3  1  0
  3  4  1  0
  4  5  1  0
  5  6  2  0
  5  7  2  0
  5  8  1  0
  2  9  1  0
  9 10  1  0
 10 11  1  0
 11 12  1  0
 12 13  1  0
 13 14  2  0
 13 15  1  0
 15 16  2  0
 16 17  1  0
 17 18  2  0
 18 19  1  0
 12 20  1  0
 20 21  1  0
 21  9  1  0
 19 15  1  0
  3 22  1  0
  3 23  1  0
  8 24  1  0
 10 25  1  0
 10 26  1  0
 11 27  1  0
 11 28  1  0
 16 29  1  0
 17 30  1  0
 18 31  1  0
 20 32  1  0
 20 33  1  0
 21 34  1  0
 21 35  1  0
M  END
>  <CHROM.1>  (1) 
91.63087381,-173.78459159,-2.69566487,149.78178799,-156.93261641,-2.69566205
0.31113678,1.01126359

>  <Name>  (1) 
O=C(CSS(=O)(=O)O)N1CCN(C(=O)c2ccco2)CC1

>  <RI>  (1) 
3.38225e+07

>  <Rbt.Current_Directory>  (1) 
/data/out

>  <Rbt.Executable>  (1) 
rbdock ($Id: //depot/dev/client3/rdock/2013.1/src/exe/rbdock.cxx#4 $)

>  <Rbt.Library>  (1) 
libRbt.so (2013.1, Build901 2013/11/27)

>  <Rbt.Parameter_File>  (1) 
/python_libraries/phenodiscovery/docking/templates/RDOCK_TETHER.conf

>  <Rbt.Receptor>  (1) 
/data/out/rdock-opt/grid/rdock-grid.prm

>  <SCORE>  (1) 
-18.7705

>  <SCORE.INTER>  (1) 
-21.7271

>  <SCORE.INTER.CONST>  (1) 
1

>  <SCORE.INTER.POLAR>  (1) 
-2.51115

>  <SCORE.INTER.REPUL>  (1) 
0.113662

>  <SCORE.INTER.ROT>  (1) 
4

>  <SCORE.INTER.VDW>  (1) 
-23.1575

>  <SCORE.INTER.norm>  (1) 
-1.03462

>  <SCORE.INTRA>  (1) 
2.95652

>  <SCORE.INTRA.DIHEDRAL>  (1) 
3.38693

>  <SCORE.INTRA.DIHEDRAL.0>  (1) 
1.82172

>  <SCORE.INTRA.POLAR>  (1) 
0

>  <SCORE.INTRA.POLAR.0>  (1) 
0

>  <SCORE.INTRA.REPUL>  (1) 
0

>  <SCORE.INTRA.REPUL.0>  (1) 
0

>  <SCORE.INTRA.VDW>  (1) 
1.26305

>  <SCORE.INTRA.VDW.0>  (1) 
-2.20483

>  <SCORE.INTRA.norm>  (1) 
0.140787

>  <SCORE.RESTR>  (1) 
0

>  <SCORE.RESTR.CAVITY>  (1) 
0

>  <SCORE.RESTR.norm>  (1) 
0

>  <SCORE.SYSTEM>  (1) 
0

>  <SCORE.SYSTEM.CONST>  (1) 
0

>  <SCORE.SYSTEM.DIHEDRAL>  (1) 
0

>  <SCORE.SYSTEM.norm>  (1) 
0

>  <SCORE.heavy>  (1) 
21

>  <SCORE.norm>  (1) 
-0.893835

>  <TETHERED ATOMS>  (1) 
13,14,15,1,12,2,9,18,16,17,19,11,21,10,20

>  <skeledock_score>  (1) 
113

$$$$
