O=C(Cn1cc(NC(=O)C2CCC2)cn1)NCCO
     RDKit          3D

 37 38  0  0  0  0  0  0  0  0999 V2000
  -21.0141   13.6699   28.4006 O   0  0  0  0  0  0  0  0  0  0  0  0
  -20.4783   12.9201   27.5398 C   0  0  0  0  0  0  0  0  0  0  0  0
  -18.9862   12.8833   27.4146 C   0  0  0  0  0  0  0  0  0  0  0  0
  -18.5275   14.0030   26.5988 N   0  0  0  0  0  0  0  0  0  0  0  0
  -17.7972   15.0535   27.0256 C   0  0  0  0  0  0  0  0  0  0  0  0
  -17.5684   15.8659   25.9307 C   0  0  0  0  0  0  0  0  0  0  0  0
  -16.7552   17.0453   25.8350 N   0  0  0  0  0  0  0  0  0  0  0  0
  -15.9900   17.6121   26.9109 C   0  0  0  0  0  0  0  0  0  0  0  0
  -16.2625   17.3296   28.1080 O   0  0  0  0  0  0  0  0  0  0  0  0
  -14.7596   18.4295   26.6042 C   0  0  0  0  0  0  0  0  0  0  0  0
  -14.1981   19.2436   27.7693 C   0  0  0  0  0  0  0  0  0  0  0  0
  -14.3573   20.5170   26.9510 C   0  0  0  0  0  0  0  0  0  0  0  0
  -15.0015   19.7211   25.8257 C   0  0  0  0  0  0  0  0  0  0  0  0
  -18.1807   15.2390   24.8646 C   0  0  0  0  0  0  0  0  0  0  0  0
  -18.7586   14.1028   25.2977 N   0  0  0  0  0  0  0  0  0  0  0  0
  -21.2873   12.0840   26.7034 N   0  0  0  0  0  0  0  0  0  0  0  0
  -22.7457   12.0727   26.8177 C   0  0  0  0  0  0  0  0  0  0  0  0
  -23.4084   11.8734   25.4522 C   0  0  0  0  0  0  0  0  0  0  0  0
  -24.7798   12.1580   25.5202 O   0  0  0  0  0  0  0  0  0  0  0  0
  -18.6632   11.9299   26.9431 H   0  0  0  0  0  0  0  0  0  0  0  0
  -18.5351   12.9323   28.4296 H   0  0  0  0  0  0  0  0  0  0  0  0
  -17.4450   15.1844   28.0391 H   0  0  0  0  0  0  0  0  0  0  0  0
  -16.6157   17.4336   24.8757 H   0  0  0  0  0  0  0  0  0  0  0  0
  -13.9723   17.8057   26.1257 H   0  0  0  0  0  0  0  0  0  0  0  0
  -13.1332   19.0052   27.9832 H   0  0  0  0  0  0  0  0  0  0  0  0
  -14.8449   19.2523   28.6743 H   0  0  0  0  0  0  0  0  0  0  0  0
  -13.3797   20.9568   26.6548 H   0  0  0  0  0  0  0  0  0  0  0  0
  -15.0573   21.2431   27.4194 H   0  0  0  0  0  0  0  0  0  0  0  0
  -14.4177   19.7679   24.8805 H   0  0  0  0  0  0  0  0  0  0  0  0
  -16.0741   19.9902   25.7056 H   0  0  0  0  0  0  0  0  0  0  0  0
  -18.1857   15.5736   23.8359 H   0  0  0  0  0  0  0  0  0  0  0  0
  -20.8113   11.4650   26.0078 H   0  0  0  0  0  0  0  0  0  0  0  0
  -23.0538   11.2437   27.4909 H   0  0  0  0  0  0  0  0  0  0  0  0
  -23.0917   13.0323   27.2596 H   0  0  0  0  0  0  0  0  0  0  0  0
  -23.2483   10.8269   25.1065 H   0  0  0  0  0  0  0  0  0  0  0  0
  -22.9359   12.5505   24.7091 H   0  0  0  0  0  0  0  0  0  0  0  0
  -25.2197   11.3490   25.8914 H   0  0  0  0  0  0  0  0  0  0  0  0
  1  2  2  0
  2  3  1  0
  3  4  1  0
  4  5  1  0
  5  6  2  0
  6  7  1  0
  7  8  1  0
  8  9  2  0
  8 10  1  0
 10 11  1  0
 11 12  1  0
 12 13  1  0
  6 14  1  0
 14 15  2  0
  2 16  1  0
 16 17  1  0
 17 18  1  0
 18 19  1  0
 15  4  1  0
 13 10  1  0
  3 20  1  0
  3 21  1  0
  5 22  1  0
  7 23  1  0
 10 24  1  0
 11 25  1  0
 11 26  1  0
 12 27  1  0
 12 28  1  0
 13 29  1  0
 13 30  1  0
 14 31  1  0
 16 32  1  0
 17 33  1  0
 17 34  1  0
 18 35  1  0
 18 36  1  0
 19 37  1  0
M  END
>  <CHROM.1>  (1) 
-82.27228833,112.67525184,0.49954964,166.76913718,145.07328210,-166.87220028
-81.22110820,-0.12218457,0.91008687,1.77678455

>  <Name>  (1) 
O=C(Cn1cc(NC(=O)C2CCC2)cn1)NCCO

>  <RI>  (1) 
2.88891e+07

>  <Rbt.Current_Directory>  (1) 
/data/out

>  <Rbt.Executable>  (1) 
rbdock ($Id: //depot/dev/client3/rdock/2013.1/src/exe/rbdock.cxx#4 $)

>  <Rbt.Library>  (1) 
libRbt.so (2013.1, Build901 2013/11/27)

>  <Rbt.Parameter_File>  (1) 
/python_libraries/phenodiscovery/docking/templates/RDOCK_TETHER.conf

>  <Rbt.Receptor>  (1) 
/data/out/rdock-opt/grid/rdock-grid.prm

>  <SCORE>  (1) 
-19.0083

>  <SCORE.INTER>  (1) 
-20.102

>  <SCORE.INTER.CONST>  (1) 
1

>  <SCORE.INTER.POLAR>  (1) 
-2.68242

>  <SCORE.INTER.REPUL>  (1) 
0

>  <SCORE.INTER.ROT>  (1) 
6

>  <SCORE.INTER.VDW>  (1) 
-22.3818

>  <SCORE.INTER.norm>  (1) 
-1.058

>  <SCORE.INTRA>  (1) 
1.09376

>  <SCORE.INTRA.DIHEDRAL>  (1) 
0.349726

>  <SCORE.INTRA.DIHEDRAL.0>  (1) 
8.48524

>  <SCORE.INTRA.POLAR>  (1) 
0

>  <SCORE.INTRA.POLAR.0>  (1) 
0

>  <SCORE.INTRA.REPUL>  (1) 
0

>  <SCORE.INTRA.REPUL.0>  (1) 
0

>  <SCORE.INTRA.VDW>  (1) 
0.918898

>  <SCORE.INTRA.VDW.0>  (1) 
-2.29024

>  <SCORE.INTRA.norm>  (1) 
0.0575663

>  <SCORE.RESTR>  (1) 
0

>  <SCORE.RESTR.CAVITY>  (1) 
0

>  <SCORE.RESTR.norm>  (1) 
0

>  <SCORE.SYSTEM>  (1) 
0

>  <SCORE.SYSTEM.CONST>  (1) 
0

>  <SCORE.SYSTEM.DIHEDRAL>  (1) 
0

>  <SCORE.SYSTEM.norm>  (1) 
0

>  <SCORE.heavy>  (1) 
19

>  <SCORE.norm>  (1) 
-1.00043

>  <TETHERED ATOMS>  (1) 
8,9,6,10,7,12,13,11,3,15,4,5,2,14

>  <skeledock_score>  (1) 
107

$$$$
