Cc1nc2ccccc2n1CCC(=O)NC(C)CO
     RDKit          3D

 38 39  0  0  0  0  0  0  0  0999 V2000
  -18.2179   12.8585   23.3707 C   0  0  0  0  0  0  0  0  0  0  0  0
  -19.2070   12.6478   24.4756 C   0  0  0  0  0  0  0  0  0  0  0  0
  -20.3549   11.9471   24.2878 N   0  0  0  0  0  0  0  0  0  0  0  0
  -20.9690   12.0432   25.4792 C   0  0  0  0  0  0  0  0  0  0  0  0
  -22.2343   11.5692   25.8153 C   0  0  0  0  0  0  0  0  0  0  0  0
  -22.7120   11.8373   27.1108 C   0  0  0  0  0  0  0  0  0  0  0  0
  -21.9194   12.5606   28.0296 C   0  0  0  0  0  0  0  0  0  0  0  0
  -20.6517   13.0420   27.6535 C   0  0  0  0  0  0  0  0  0  0  0  0
  -20.2113   12.7674   26.3545 C   0  0  0  0  0  0  0  0  0  0  0  0
  -19.0925   13.1769   25.7271 N   0  0  0  0  0  0  0  0  0  0  0  0
  -18.1648   14.2279   26.1603 C   0  0  0  0  0  0  0  0  0  0  0  0
  -18.8196   15.6007   26.1275 C   0  0  0  0  0  0  0  0  0  0  0  0
  -17.8709   16.6586   26.6089 C   0  0  0  0  0  0  0  0  0  0  0  0
  -18.0005   17.1303   27.7725 O   0  0  0  0  0  0  0  0  0  0  0  0
  -16.8406   17.1479   25.7404 N   0  0  0  0  0  0  0  0  0  0  0  0
  -15.9108   18.2073   26.1478 C   0  0  0  0  0  0  0  0  0  0  0  0
  -15.4413   18.9892   24.9174 C   0  0  0  0  0  0  0  0  0  0  0  0
  -14.7056   17.6100   26.8941 C   0  0  0  0  0  0  0  0  0  0  0  0
  -15.1255   16.9458   28.0557 O   0  0  0  0  0  0  0  0  0  0  0  0
  -18.0594   13.9430   23.1994 H   0  0  0  0  0  0  0  0  0  0  0  0
  -18.5970   12.4065   22.4300 H   0  0  0  0  0  0  0  0  0  0  0  0
  -17.2551   12.3718   23.6230 H   0  0  0  0  0  0  0  0  0  0  0  0
  -22.8344   11.0192   25.1019 H   0  0  0  0  0  0  0  0  0  0  0  0
  -23.6905   11.4825   27.4071 H   0  0  0  0  0  0  0  0  0  0  0  0
  -22.2943   12.7558   29.0258 H   0  0  0  0  0  0  0  0  0  0  0  0
  -20.0512   13.6057   28.3540 H   0  0  0  0  0  0  0  0  0  0  0  0
  -17.2598   14.2422   25.5172 H   0  0  0  0  0  0  0  0  0  0  0  0
  -17.8137   13.9969   27.1894 H   0  0  0  0  0  0  0  0  0  0  0  0
  -19.7176   15.6205   26.7756 H   0  0  0  0  0  0  0  0  0  0  0  0
  -19.1503   15.8165   25.0888 H   0  0  0  0  0  0  0  0  0  0  0  0
  -16.7377   16.7146   24.7943 H   0  0  0  0  0  0  0  0  0  0  0  0
  -16.4286   18.9083   26.8398 H   0  0  0  0  0  0  0  0  0  0  0  0
  -14.9260   18.3131   24.2018 H   0  0  0  0  0  0  0  0  0  0  0  0
  -16.3079   19.4563   24.4044 H   0  0  0  0  0  0  0  0  0  0  0  0
  -14.7419   19.7978   25.2195 H   0  0  0  0  0  0  0  0  0  0  0  0
  -13.9789   18.4126   27.1575 H   0  0  0  0  0  0  0  0  0  0  0  0
  -14.1800   16.8815   26.2398 H   0  0  0  0  0  0  0  0  0  0  0  0
  -15.5571   17.6284   28.6332 H   0  0  0  0  0  0  0  0  0  0  0  0
  1  2  1  0
  2  3  2  0
  3  4  1  0
  4  5  2  0
  5  6  1  0
  6  7  2  0
  7  8  1  0
  8  9  2  0
  9 10  1  0
 10 11  1  0
 11 12  1  0
 12 13  1  0
 13 14  2  0
 13 15  1  0
 15 16  1  0
 16 17  1  0
 16 18  1  0
 18 19  1  0
 10  2  1  0
  9  4  1  0
  1 20  1  0
  1 21  1  0
  1 22  1  0
  5 23  1  0
  6 24  1  0
  7 25  1  0
  8 26  1  0
 11 27  1  0
 11 28  1  0
 12 29  1  0
 12 30  1  0
 15 31  1  0
 16 32  1  0
 17 33  1  0
 17 34  1  0
 17 35  1  0
 18 36  1  0
 18 37  1  0
 19 38  1  0
M  END
>  <CHROM.1>  (1) 
95.62024529,178.43102751,-103.16156855,-151.63499298,-61.00908463,-61.65783661
-2.55647186,0.70414175,0.85580057

>  <Name>  (1) 
Cc1nc2ccccc2n1CCC(=O)NC(C)CO

>  <RI>  (1) 
1.0746e+07

>  <Rbt.Current_Directory>  (1) 
/data/out

>  <Rbt.Executable>  (1) 
rbdock ($Id: //depot/dev/client3/rdock/2013.1/src/exe/rbdock.cxx#4 $)

>  <Rbt.Library>  (1) 
libRbt.so (2013.1, Build901 2013/11/27)

>  <Rbt.Parameter_File>  (1) 
/python_libraries/phenodiscovery/docking/templates/RDOCK_TETHER.conf

>  <Rbt.Receptor>  (1) 
/data/out/rdock-opt/grid/rdock-grid.prm

>  <SCORE>  (1) 
-17.9108

>  <SCORE.INTER>  (1) 
-15.5798

>  <SCORE.INTER.CONST>  (1) 
1

>  <SCORE.INTER.POLAR>  (1) 
-1.62182

>  <SCORE.INTER.REPUL>  (1) 
0.216958

>  <SCORE.INTER.ROT>  (1) 
5

>  <SCORE.INTER.VDW>  (1) 
-21.5504

>  <SCORE.INTER.norm>  (1) 
-0.819987

>  <SCORE.INTRA>  (1) 
-2.33105

>  <SCORE.INTRA.DIHEDRAL>  (1) 
-1.00241

>  <SCORE.INTRA.DIHEDRAL.0>  (1) 
6.81745

>  <SCORE.INTRA.POLAR>  (1) 
0

>  <SCORE.INTRA.POLAR.0>  (1) 
0

>  <SCORE.INTRA.REPUL>  (1) 
0

>  <SCORE.INTRA.REPUL.0>  (1) 
0

>  <SCORE.INTRA.VDW>  (1) 
-1.82985

>  <SCORE.INTRA.VDW.0>  (1) 
-0.597245

>  <SCORE.INTRA.norm>  (1) 
-0.122687

>  <SCORE.RESTR>  (1) 
0

>  <SCORE.RESTR.CAVITY>  (1) 
0

>  <SCORE.RESTR.norm>  (1) 
0

>  <SCORE.SYSTEM>  (1) 
0

>  <SCORE.SYSTEM.CONST>  (1) 
0

>  <SCORE.SYSTEM.DIHEDRAL>  (1) 
0

>  <SCORE.SYSTEM.norm>  (1) 
0

>  <SCORE.heavy>  (1) 
19

>  <SCORE.norm>  (1) 
-0.942674

>  <TETHERED ATOMS>  (1) 
10,13,11,14,15,12,9,6,5,2,4,7,1,3,8

>  <skeledock_score>  (1) 
115

$$$$
