CS(=O)(=O)Nc1cccc(NCc2cc[nH]n2)c1
     RDKit          3D

 32 33  0  0  0  0  0  0  0  0999 V2000
  -26.1252   16.2317   29.1509 C   0  0  0  0  0  0  0  0  0  0  0  0
  -25.7747   14.7794   28.1823 S   0  0  0  0  0  0  0  0  0  0  0  0
  -26.5888   13.6134   28.6685 O   0  0  0  0  0  0  0  0  0  0  0  0
  -26.1420   15.0600   26.7525 O   0  0  0  0  0  0  0  0  0  0  0  0
  -24.0826   14.3994   28.2612 N   0  0  0  0  0  0  0  0  0  0  0  0
  -23.4318   13.3977   27.4575 C   0  0  0  0  0  0  0  0  0  0  0  0
  -24.1276   12.6451   26.4909 C   0  0  0  0  0  0  0  0  0  0  0  0
  -23.4593   11.6842   25.7289 C   0  0  0  0  0  0  0  0  0  0  0  0
  -22.1000   11.4522   25.9296 C   0  0  0  0  0  0  0  0  0  0  0  0
  -21.3900   12.1947   26.8776 C   0  0  0  0  0  0  0  0  0  0  0  0
  -20.0140   11.8799   27.1185 N   0  0  0  0  0  0  0  0  0  0  0  0
  -19.0266   12.8851   27.4902 C   0  0  0  0  0  0  0  0  0  0  0  0
  -18.7968   13.8450   26.3635 C   0  0  0  0  0  0  0  0  0  0  0  0
  -19.3050   13.7451   25.0801 C   0  0  0  0  0  0  0  0  0  0  0  0
  -18.7740   14.8326   24.4201 C   0  0  0  0  0  0  0  0  0  0  0  0
  -17.9933   15.5168   25.2751 N   0  0  0  0  0  0  0  0  0  0  0  0
  -17.9983   14.9242   26.4575 N   0  0  0  0  0  0  0  0  0  0  0  0
  -22.0543   13.1735   27.6324 C   0  0  0  0  0  0  0  0  0  0  0  0
  -27.1982   16.4948   29.0486 H   0  0  0  0  0  0  0  0  0  0  0  0
  -25.8961   16.0440   30.2190 H   0  0  0  0  0  0  0  0  0  0  0  0
  -25.5039   17.0760   28.7874 H   0  0  0  0  0  0  0  0  0  0  0  0
  -23.5258   14.8988   28.9905 H   0  0  0  0  0  0  0  0  0  0  0  0
  -25.1803   12.7968   26.3089 H   0  0  0  0  0  0  0  0  0  0  0  0
  -24.0009   11.1098   24.9884 H   0  0  0  0  0  0  0  0  0  0  0  0
  -21.5973   10.6899   25.3474 H   0  0  0  0  0  0  0  0  0  0  0  0
  -19.6529   10.9651   26.7636 H   0  0  0  0  0  0  0  0  0  0  0  0
  -19.3574   13.4270   28.4015 H   0  0  0  0  0  0  0  0  0  0  0  0
  -18.0643   12.3810   27.7230 H   0  0  0  0  0  0  0  0  0  0  0  0
  -19.9653   12.9859   24.6823 H   0  0  0  0  0  0  0  0  0  0  0  0
  -18.9398   15.1027   23.3857 H   0  0  0  0  0  0  0  0  0  0  0  0
  -17.4563   16.3846   25.0557 H   0  0  0  0  0  0  0  0  0  0  0  0
  -21.5070   13.7345   28.3795 H   0  0  0  0  0  0  0  0  0  0  0  0
  1  2  1  0
  2  3  2  0
  2  4  2  0
  2  5  1  0
  5  6  1  0
  6  7  2  0
  7  8  1  0
  8  9  2  0
  9 10  1  0
 10 11  1  0
 11 12  1  0
 12 13  1  0
 13 14  1  0
 14 15  2  0
 15 16  1  0
 16 17  1  0
 10 18  2  0
 18  6  1  0
 17 13  2  0
  1 19  1  0
  1 20  1  0
  1 21  1  0
  5 22  1  0
  7 23  1  0
  8 24  1  0
  9 25  1  0
 11 26  1  0
 12 27  1  0
 12 28  1  0
 14 29  1  0
 15 30  1  0
 16 31  1  0
 18 32  1  0
M  END
>  <CHROM.1>  (1) 
-171.41984779,1.62179070,147.61199463,-66.59745842,-7.15351604,-2.70675855
-0.23788709,-0.85711576

>  <Name>  (1) 
CS(=O)(=O)Nc1cccc(NCc2cc[nH]n2)c1

>  <RI>  (1) 
1.95737e+07

>  <Rbt.Current_Directory>  (1) 
/data/out

>  <Rbt.Executable>  (1) 
rbdock ($Id: //depot/dev/client3/rdock/2013.1/src/exe/rbdock.cxx#4 $)

>  <Rbt.Library>  (1) 
libRbt.so (2013.1, Build901 2013/11/27)

>  <Rbt.Parameter_File>  (1) 
/python_libraries/phenodiscovery/docking/templates/RDOCK_TETHER.conf

>  <Rbt.Receptor>  (1) 
/data/out/rdock-opt/grid/rdock-grid.prm

>  <SCORE>  (1) 
-18.0101

>  <SCORE.INTER>  (1) 
-16.3158

>  <SCORE.INTER.CONST>  (1) 
1

>  <SCORE.INTER.POLAR>  (1) 
-1.35213

>  <SCORE.INTER.REPUL>  (1) 
0

>  <SCORE.INTER.ROT>  (1) 
5

>  <SCORE.INTER.VDW>  (1) 
-22.1186

>  <SCORE.INTER.norm>  (1) 
-0.906435

>  <SCORE.INTRA>  (1) 
-1.69424

>  <SCORE.INTRA.DIHEDRAL>  (1) 
-6.99254

>  <SCORE.INTRA.DIHEDRAL.0>  (1) 
14.1822

>  <SCORE.INTRA.POLAR>  (1) 
0

>  <SCORE.INTRA.POLAR.0>  (1) 
0

>  <SCORE.INTRA.REPUL>  (1) 
0

>  <SCORE.INTRA.REPUL.0>  (1) 
0

>  <SCORE.INTRA.VDW>  (1) 
1.80203

>  <SCORE.INTRA.VDW.0>  (1) 
-3.16969

>  <SCORE.INTRA.norm>  (1) 
-0.0941246

>  <SCORE.RESTR>  (1) 
0

>  <SCORE.RESTR.CAVITY>  (1) 
0

>  <SCORE.RESTR.norm>  (1) 
0

>  <SCORE.SYSTEM>  (1) 
0

>  <SCORE.SYSTEM.CONST>  (1) 
0

>  <SCORE.SYSTEM.DIHEDRAL>  (1) 
0

>  <SCORE.SYSTEM.norm>  (1) 
0

>  <SCORE.heavy>  (1) 
18

>  <SCORE.norm>  (1) 
-1.00056

>  <TETHERED ATOMS>  (1) 
11,10,14,16,13,17,15,7,12,8,6,18,9

>  <skeledock_score>  (1) 
94

$$$$
