Cc1nc2ccccc2n1CCC(=O)NC(C)CN
     RDKit          3D

 39 40  0  0  0  0  0  0  0  0999 V2000
  -18.1185   12.9366   23.4111 C   0  0  0  0  0  0  0  0  0  0  0  0
  -19.1090   12.6661   24.5018 C   0  0  0  0  0  0  0  0  0  0  0  0
  -20.2030   11.8872   24.3014 N   0  0  0  0  0  0  0  0  0  0  0  0
  -20.8416   11.9493   25.4822 C   0  0  0  0  0  0  0  0  0  0  0  0
  -22.0768   11.3918   25.8020 C   0  0  0  0  0  0  0  0  0  0  0  0
  -22.5927   11.6354   27.0877 C   0  0  0  0  0  0  0  0  0  0  0  0
  -21.8665   12.4176   28.0130 C   0  0  0  0  0  0  0  0  0  0  0  0
  -20.6287   12.9821   27.6532 C   0  0  0  0  0  0  0  0  0  0  0  0
  -20.1496   12.7296   26.3636 C   0  0  0  0  0  0  0  0  0  0  0  0
  -19.0514   13.2104   25.7506 N   0  0  0  0  0  0  0  0  0  0  0  0
  -18.2049   14.3256   26.1901 C   0  0  0  0  0  0  0  0  0  0  0  0
  -18.9489   15.6512   26.1277 C   0  0  0  0  0  0  0  0  0  0  0  0
  -18.0736   16.7786   26.5898 C   0  0  0  0  0  0  0  0  0  0  0  0
  -18.3534   17.3876   27.6592 O   0  0  0  0  0  0  0  0  0  0  0  0
  -16.9452   17.1792   25.8018 N   0  0  0  0  0  0  0  0  0  0  0  0
  -16.0847   18.3064   26.1737 C   0  0  0  0  0  0  0  0  0  0  0  0
  -16.7866   19.6196   25.8223 C   0  0  0  0  0  0  0  0  0  0  0  0
  -14.7293   18.2054   25.4544 C   0  0  0  0  0  0  0  0  0  0  0  0
  -14.9231   18.0779   24.0122 N   0  0  0  0  0  0  0  0  0  0  0  0
  -18.0322   14.0281   23.2333 H   0  0  0  0  0  0  0  0  0  0  0  0
  -18.4499   12.4527   22.4683 H   0  0  0  0  0  0  0  0  0  0  0  0
  -17.1288   12.5194   23.6829 H   0  0  0  0  0  0  0  0  0  0  0  0
  -22.6261   10.7972   25.0836 H   0  0  0  0  0  0  0  0  0  0  0  0
  -23.5494   11.2163   27.3713 H   0  0  0  0  0  0  0  0  0  0  0  0
  -22.2701   12.5934   29.0017 H   0  0  0  0  0  0  0  0  0  0  0  0
  -20.0798   13.5904   28.3586 H   0  0  0  0  0  0  0  0  0  0  0  0
  -17.2897   14.3936   25.5650 H   0  0  0  0  0  0  0  0  0  0  0  0
  -17.8608   14.1293   27.2286 H   0  0  0  0  0  0  0  0  0  0  0  0
  -19.2882   15.8233   25.0836 H   0  0  0  0  0  0  0  0  0  0  0  0
  -19.8489   15.6247   26.7729 H   0  0  0  0  0  0  0  0  0  0  0  0
  -16.8033   16.7327   24.8671 H   0  0  0  0  0  0  0  0  0  0  0  0
  -15.8907   18.2954   27.2694 H   0  0  0  0  0  0  0  0  0  0  0  0
  -17.7556   19.6856   26.3612 H   0  0  0  0  0  0  0  0  0  0  0  0
  -16.9808   19.6767   24.7296 H   0  0  0  0  0  0  0  0  0  0  0  0
  -16.1593   20.4850   26.1250 H   0  0  0  0  0  0  0  0  0  0  0  0
  -14.1036   19.0995   25.6766 H   0  0  0  0  0  0  0  0  0  0  0  0
  -14.1874   17.3061   25.8229 H   0  0  0  0  0  0  0  0  0  0  0  0
  -14.1227   17.5227   23.6318 H   0  0  0  0  0  0  0  0  0  0  0  0
  -14.8497   19.0292   23.5836 H   0  0  0  0  0  0  0  0  0  0  0  0
  1  2  1  0
  2  3  2  0
  3  4  1  0
  4  5  2  0
  5  6  1  0
  6  7  2  0
  7  8  1  0
  8  9  2  0
  9 10  1  0
 10 11  1  0
 11 12  1  0
 12 13  1  0
 13 14  2  0
 13 15  1  0
 15 16  1  0
 16 17  1  0
 16 18  1  0
 18 19  1  0
 10  2  1  0
  9  4  1  0
  1 20  1  0
  1 21  1  0
  1 22  1  0
  5 23  1  0
  6 24  1  0
  7 25  1  0
  8 26  1  0
 11 27  1  0
 11 28  1  0
 12 29  1  0
 12 30  1  0
 15 31  1  0
 16 32  1  0
 17 33  1  0
 17 34  1  0
 17 35  1  0
 18 36  1  0
 18 37  1  0
 19 38  1  0
 19 39  1  0
M  END
>  <CHROM.1>  (1) 
95.27572453,179.56811502,-113.03746079,-77.38393278,53.88018410,-150.05418992
-2.47241711,0.73380994,0.77722482

>  <Name>  (1) 
Cc1nc2ccccc2n1CCC(=O)NC(C)CN

>  <RI>  (1) 
4.13186e+07

>  <Rbt.Current_Directory>  (1) 
/data/out

>  <Rbt.Executable>  (1) 
rbdock ($Id: //depot/dev/client3/rdock/2013.1/src/exe/rbdock.cxx#4 $)

>  <Rbt.Library>  (1) 
libRbt.so (2013.1, Build901 2013/11/27)

>  <Rbt.Parameter_File>  (1) 
/python_libraries/phenodiscovery/docking/templates/RDOCK_TETHER.conf

>  <Rbt.Receptor>  (1) 
/data/out/rdock-opt/grid/rdock-grid.prm

>  <SCORE>  (1) 
-16.964

>  <SCORE.INTER>  (1) 
-15.8583

>  <SCORE.INTER.CONST>  (1) 
1

>  <SCORE.INTER.POLAR>  (1) 
-1.67341

>  <SCORE.INTER.REPUL>  (1) 
0.0971368

>  <SCORE.INTER.ROT>  (1) 
6

>  <SCORE.INTER.VDW>  (1) 
-22.0543

>  <SCORE.INTER.norm>  (1) 
-0.834645

>  <SCORE.INTRA>  (1) 
-1.10571

>  <SCORE.INTRA.DIHEDRAL>  (1) 
1.04475

>  <SCORE.INTRA.DIHEDRAL.0>  (1) 
5.73013

>  <SCORE.INTRA.POLAR>  (1) 
-0.00196319

>  <SCORE.INTRA.POLAR.0>  (1) 
0

>  <SCORE.INTRA.REPUL>  (1) 
0

>  <SCORE.INTRA.REPUL.0>  (1) 
0

>  <SCORE.INTRA.VDW>  (1) 
-1.62141

>  <SCORE.INTRA.VDW.0>  (1) 
-0.695358

>  <SCORE.INTRA.norm>  (1) 
-0.0581954

>  <SCORE.RESTR>  (1) 
0

>  <SCORE.RESTR.CAVITY>  (1) 
0

>  <SCORE.RESTR.norm>  (1) 
0

>  <SCORE.SYSTEM>  (1) 
0

>  <SCORE.SYSTEM.CONST>  (1) 
0

>  <SCORE.SYSTEM.DIHEDRAL>  (1) 
0

>  <SCORE.SYSTEM.norm>  (1) 
0

>  <SCORE.heavy>  (1) 
19

>  <SCORE.norm>  (1) 
-0.89284

>  <TETHERED ATOMS>  (1) 
10,13,11,14,15,12,9,6,5,2,4,7,1,3,8

>  <skeledock_score>  (1) 
115

$$$$
