O=C(Cn1cc(NC(=O)C2CCCC2)cn1)NCCO
     RDKit          3D

 40 41  0  0  0  0  0  0  0  0999 V2000
  -20.6250   12.5163   29.0987 O   0  0  0  0  0  0  0  0  0  0  0  0
  -20.2468   12.7073   27.9111 C   0  0  0  0  0  0  0  0  0  0  0  0
  -18.7823   12.7821   27.6070 C   0  0  0  0  0  0  0  0  0  0  0  0
  -18.4981   13.9620   26.7941 N   0  0  0  0  0  0  0  0  0  0  0  0
  -17.7115   14.9961   27.1495 C   0  0  0  0  0  0  0  0  0  0  0  0
  -17.6845   15.8855   26.0893 C   0  0  0  0  0  0  0  0  0  0  0  0
  -16.9809   17.1398   25.9886 N   0  0  0  0  0  0  0  0  0  0  0  0
  -16.1444   17.6664   27.0361 C   0  0  0  0  0  0  0  0  0  0  0  0
  -15.8109   16.9306   28.0011 O   0  0  0  0  0  0  0  0  0  0  0  0
  -15.5680   19.0610   27.0017 C   0  0  0  0  0  0  0  0  0  0  0  0
  -15.0074   19.5271   25.6684 C   0  0  0  0  0  0  0  0  0  0  0  0
  -14.1013   20.7031   26.0316 C   0  0  0  0  0  0  0  0  0  0  0  0
  -13.7866   20.5734   27.5268 C   0  0  0  0  0  0  0  0  0  0  0  0
  -14.4467   19.2830   27.9966 C   0  0  0  0  0  0  0  0  0  0  0  0
  -18.4981   15.3297   25.1208 C   0  0  0  0  0  0  0  0  0  0  0  0
  -18.9775   14.1523   25.5729 N   0  0  0  0  0  0  0  0  0  0  0  0
  -21.2097   12.9028   26.8678 N   0  0  0  0  0  0  0  0  0  0  0  0
  -22.6462   12.8705   27.1401 C   0  0  0  0  0  0  0  0  0  0  0  0
  -23.3544   11.8706   26.2240 C   0  0  0  0  0  0  0  0  0  0  0  0
  -24.7336   11.8760   26.4732 O   0  0  0  0  0  0  0  0  0  0  0  0
  -18.4604   11.8703   27.0602 H   0  0  0  0  0  0  0  0  0  0  0  0
  -18.2089   12.8226   28.5594 H   0  0  0  0  0  0  0  0  0  0  0  0
  -17.2238   15.0872   28.1098 H   0  0  0  0  0  0  0  0  0  0  0  0
  -17.0365   17.6564   25.0829 H   0  0  0  0  0  0  0  0  0  0  0  0
  -16.3894   19.7684   27.2679 H   0  0  0  0  0  0  0  0  0  0  0  0
  -15.8192   19.8388   24.9756 H   0  0  0  0  0  0  0  0  0  0  0  0
  -14.3999   18.7322   25.1859 H   0  0  0  0  0  0  0  0  0  0  0  0
  -13.1685   20.6762   25.4270 H   0  0  0  0  0  0  0  0  0  0  0  0
  -14.6274   21.6635   25.8367 H   0  0  0  0  0  0  0  0  0  0  0  0
  -14.2147   21.4386   28.0796 H   0  0  0  0  0  0  0  0  0  0  0  0
  -12.6895   20.5394   27.7038 H   0  0  0  0  0  0  0  0  0  0  0  0
  -14.8344   19.3788   29.0343 H   0  0  0  0  0  0  0  0  0  0  0  0
  -13.7139   18.4463   27.9474 H   0  0  0  0  0  0  0  0  0  0  0  0
  -18.7206   15.7483   24.1485 H   0  0  0  0  0  0  0  0  0  0  0  0
  -20.8659   13.0781   25.8958 H   0  0  0  0  0  0  0  0  0  0  0  0
  -23.0745   13.8832   26.9756 H   0  0  0  0  0  0  0  0  0  0  0  0
  -22.8120   12.5795   28.2000 H   0  0  0  0  0  0  0  0  0  0  0  0
  -23.1856   12.1593   25.1647 H   0  0  0  0  0  0  0  0  0  0  0  0
  -22.9373   10.8485   26.3750 H   0  0  0  0  0  0  0  0  0  0  0  0
  -25.1336   11.1948   25.8717 H   0  0  0  0  0  0  0  0  0  0  0  0
  1  2  2  0
  2  3  1  0
  3  4  1  0
  4  5  1  0
  5  6  2  0
  6  7  1  0
  7  8  1  0
  8  9  2  0
  8 10  1  0
 10 11  1  0
 11 12  1  0
 12 13  1  0
 13 14  1  0
  6 15  1  0
 15 16  2  0
  2 17  1  0
 17 18  1  0
 18 19  1  0
 19 20  1  0
 16  4  1  0
 14 10  1  0
  3 21  1  0
  3 22  1  0
  5 23  1  0
  7 24  1  0
 10 25  1  0
 11 26  1  0
 11 27  1  0
 12 28  1  0
 12 29  1  0
 13 30  1  0
 13 31  1  0
 14 32  1  0
 14 33  1  0
 15 34  1  0
 17 35  1  0
 18 36  1  0
 18 37  1  0
 19 38  1  0
 19 39  1  0
 20 40  1  0
M  END
>  <CHROM.1>  (1) 
-130.94400667,117.75830016,0.79293310,-42.68527523,-126.25730736,-178.48945537
-178.45951388,-0.38553843,0.87991028,2.06557701

>  <Name>  (1) 
O=C(Cn1cc(NC(=O)C2CCCC2)cn1)NCCO

>  <RI>  (1) 
0

>  <Rbt.Current_Directory>  (1) 
/data/out

>  <Rbt.Executable>  (1) 
rbdock ($Id: //depot/dev/client3/rdock/2013.1/src/exe/rbdock.cxx#4 $)

>  <Rbt.Library>  (1) 
libRbt.so (2013.1, Build901 2013/11/27)

>  <Rbt.Parameter_File>  (1) 
/python_libraries/phenodiscovery/docking/templates/RDOCK_TETHER.conf

>  <Rbt.Receptor>  (1) 
/data/out/rdock-opt/grid/rdock-grid.prm

>  <SCORE>  (1) 
-15.3877

>  <SCORE.INTER>  (1) 
-13.9636

>  <SCORE.INTER.CONST>  (1) 
1

>  <SCORE.INTER.POLAR>  (1) 
-2.07883

>  <SCORE.INTER.REPUL>  (1) 
0

>  <SCORE.INTER.ROT>  (1) 
6

>  <SCORE.INTER.VDW>  (1) 
-18.2956

>  <SCORE.INTER.norm>  (1) 
-0.698182

>  <SCORE.INTRA>  (1) 
-1.42404

>  <SCORE.INTRA.DIHEDRAL>  (1) 
-3.0544

>  <SCORE.INTRA.DIHEDRAL.0>  (1) 
9.12059

>  <SCORE.INTRA.POLAR>  (1) 
-0.401539

>  <SCORE.INTRA.POLAR.0>  (1) 
0

>  <SCORE.INTRA.REPUL>  (1) 
0

>  <SCORE.INTRA.REPUL.0>  (1) 
0

>  <SCORE.INTRA.VDW>  (1) 
1.46839

>  <SCORE.INTRA.VDW.0>  (1) 
-1.9327

>  <SCORE.INTRA.norm>  (1) 
-0.0712021

>  <SCORE.RESTR>  (1) 
0

>  <SCORE.RESTR.CAVITY>  (1) 
0

>  <SCORE.RESTR.norm>  (1) 
0

>  <SCORE.SYSTEM>  (1) 
0

>  <SCORE.SYSTEM.CONST>  (1) 
0

>  <SCORE.SYSTEM.DIHEDRAL>  (1) 
0

>  <SCORE.SYSTEM.norm>  (1) 
0

>  <SCORE.heavy>  (1) 
20

>  <SCORE.norm>  (1) 
-0.769385

>  <TETHERED ATOMS>  (1) 
9,8,10,7,6,14,12,13,11,5,3,4,15,16,2

>  <skeledock_score>  (1) 
115

$$$$
