Cc1nc2ccccc2n1CCC(=O)NCCC(=O)O
     RDKit          3D

 37 38  0  0  0  0  0  0  0  0999 V2000
  -17.7626   12.7655   24.0631 C   0  0  0  0  0  0  0  0  0  0  0  0
  -19.0714   12.6856   24.7902 C   0  0  0  0  0  0  0  0  0  0  0  0
  -20.1750   12.1544   24.2046 N   0  0  0  0  0  0  0  0  0  0  0  0
  -21.1266   12.3182   25.1393 C   0  0  0  0  0  0  0  0  0  0  0  0
  -22.4820   12.0212   25.0231 C   0  0  0  0  0  0  0  0  0  0  0  0
  -23.3166   12.3305   26.1124 C   0  0  0  0  0  0  0  0  0  0  0  0
  -22.7799   12.9164   27.2803 C   0  0  0  0  0  0  0  0  0  0  0  0
  -21.4084   13.2209   27.3599 C   0  0  0  0  0  0  0  0  0  0  0  0
  -20.6093   12.9136   26.2537 C   0  0  0  0  0  0  0  0  0  0  0  0
  -19.3052   13.1738   26.0425 N   0  0  0  0  0  0  0  0  0  0  0  0
  -18.4322   14.0439   26.8371 C   0  0  0  0  0  0  0  0  0  0  0  0
  -18.3543   15.4429   26.2422 C   0  0  0  0  0  0  0  0  0  0  0  0
  -17.2627   16.2407   26.8927 C   0  0  0  0  0  0  0  0  0  0  0  0
  -17.0147   16.0772   28.1194 O   0  0  0  0  0  0  0  0  0  0  0  0
  -16.5292   17.2073   26.1302 N   0  0  0  0  0  0  0  0  0  0  0  0
  -15.4281   17.9835   26.6969 C   0  0  0  0  0  0  0  0  0  0  0  0
  -14.4945   18.4796   25.5848 C   0  0  0  0  0  0  0  0  0  0  0  0
  -15.1959   19.3289   24.5631 C   0  0  0  0  0  0  0  0  0  0  0  0
  -16.2776   19.9190   24.8330 O   0  0  0  0  0  0  0  0  0  0  0  0
  -14.6357   19.4643   23.2971 O   0  0  0  0  0  0  0  0  0  0  0  0
  -16.9887   13.3048   24.6419 H   0  0  0  0  0  0  0  0  0  0  0  0
  -17.3985   11.7391   23.8502 H   0  0  0  0  0  0  0  0  0  0  0  0
  -17.9106   13.3010   23.1023 H   0  0  0  0  0  0  0  0  0  0  0  0
  -22.8825   11.5736   24.1227 H   0  0  0  0  0  0  0  0  0  0  0  0
  -24.3750   12.1119   26.0577 H   0  0  0  0  0  0  0  0  0  0  0  0
  -23.4300   13.1435   28.1153 H   0  0  0  0  0  0  0  0  0  0  0  0
  -21.0016   13.6812   28.2497 H   0  0  0  0  0  0  0  0  0  0  0  0
  -17.4084   13.6194   26.9035 H   0  0  0  0  0  0  0  0  0  0  0  0
  -18.8185   14.0861   27.8790 H   0  0  0  0  0  0  0  0  0  0  0  0
  -18.1747   15.3570   25.1490 H   0  0  0  0  0  0  0  0  0  0  0  0
  -19.3146   15.9814   26.3797 H   0  0  0  0  0  0  0  0  0  0  0  0
  -16.8114   17.3999   25.1426 H   0  0  0  0  0  0  0  0  0  0  0  0
  -15.8467   18.8598   27.2389 H   0  0  0  0  0  0  0  0  0  0  0  0
  -14.8678   17.3609   27.4285 H   0  0  0  0  0  0  0  0  0  0  0  0
  -13.6702   19.0772   26.0281 H   0  0  0  0  0  0  0  0  0  0  0  0
  -14.0476   17.6031   25.0682 H   0  0  0  0  0  0  0  0  0  0  0  0
  -15.0928   20.0187   22.5830 H   0  0  0  0  0  0  0  0  0  0  0  0
  1  2  1  0
  2  3  2  0
  3  4  1  0
  4  5  2  0
  5  6  1  0
  6  7  2  0
  7  8  1  0
  8  9  2  0
  9 10  1  0
 10 11  1  0
 11 12  1  0
 12 13  1  0
 13 14  2  0
 13 15  1  0
 15 16  1  0
 16 17  1  0
 17 18  1  0
 18 19  2  0
 18 20  1  0
 10  2  1  0
  9  4  1  0
  1 21  1  0
  1 22  1  0
  1 23  1  0
  5 24  1  0
  6 25  1  0
  7 26  1  0
  8 27  1  0
 11 28  1  0
 11 29  1  0
 12 30  1  0
 12 31  1  0
 15 32  1  0
 16 33  1  0
 16 34  1  0
 17 35  1  0
 17 36  1  0
 20 37  1  0
M  END
>  <CHROM.1>  (1) 
69.43728655,-168.83212331,-34.92791895,157.01274436,58.39201635,22.02857969
179.05711901,2.60503804,-0.43341516,-2.25243551

>  <Name>  (1) 
Cc1nc2ccccc2n1CCC(=O)NCCC(=O)O

>  <RI>  (1) 
4.00857e+07

>  <Rbt.Current_Directory>  (1) 
/data/out

>  <Rbt.Executable>  (1) 
rbdock ($Id: //depot/dev/client3/rdock/2013.1/src/exe/rbdock.cxx#4 $)

>  <Rbt.Library>  (1) 
libRbt.so (2013.1, Build901 2013/11/27)

>  <Rbt.Parameter_File>  (1) 
/python_libraries/phenodiscovery/docking/templates/RDOCK_TETHER.conf

>  <Rbt.Receptor>  (1) 
/data/out/rdock-opt/grid/rdock-grid.prm

>  <SCORE>  (1) 
-17.4027

>  <SCORE.INTER>  (1) 
-18.4183

>  <SCORE.INTER.CONST>  (1) 
1

>  <SCORE.INTER.POLAR>  (1) 
-2.56976

>  <SCORE.INTER.REPUL>  (1) 
0.0181884

>  <SCORE.INTER.ROT>  (1) 
6

>  <SCORE.INTER.VDW>  (1) 
-21.1721

>  <SCORE.INTER.norm>  (1) 
-0.920916

>  <SCORE.INTRA>  (1) 
1.0156

>  <SCORE.INTRA.DIHEDRAL>  (1) 
1.38315

>  <SCORE.INTRA.DIHEDRAL.0>  (1) 
7.09196

>  <SCORE.INTRA.POLAR>  (1) 
0

>  <SCORE.INTRA.POLAR.0>  (1) 
0

>  <SCORE.INTRA.REPUL>  (1) 
0

>  <SCORE.INTRA.REPUL.0>  (1) 
0

>  <SCORE.INTRA.VDW>  (1) 
0.324029

>  <SCORE.INTRA.VDW.0>  (1) 
-0.664112

>  <SCORE.INTRA.norm>  (1) 
0.0507801

>  <SCORE.RESTR>  (1) 
0

>  <SCORE.RESTR.CAVITY>  (1) 
0

>  <SCORE.RESTR.norm>  (1) 
0

>  <SCORE.SYSTEM>  (1) 
0

>  <SCORE.SYSTEM.CONST>  (1) 
0

>  <SCORE.SYSTEM.DIHEDRAL>  (1) 
0

>  <SCORE.SYSTEM.norm>  (1) 
0

>  <SCORE.heavy>  (1) 
20

>  <SCORE.norm>  (1) 
-0.870136

>  <TETHERED ATOMS>  (1) 
6,11,9,14,13,12,10,15,5,8,2,7,1,3,4

>  <skeledock_score>  (1) 
115

$$$$
