Cc1nc2ccccc2n1CCC(=O)NC(C)C(=O)O
     RDKit          3D

 37 38  0  0  0  0  0  0  0  0999 V2000
  -18.1081   12.9272   23.4357 C   0  0  0  0  0  0  0  0  0  0  0  0
  -19.1051   12.6601   24.5214 C   0  0  0  0  0  0  0  0  0  0  0  0
  -20.1982   11.8809   24.3165 N   0  0  0  0  0  0  0  0  0  0  0  0
  -20.8438   11.9465   25.4933 C   0  0  0  0  0  0  0  0  0  0  0  0
  -22.0813   11.3904   25.8071 C   0  0  0  0  0  0  0  0  0  0  0  0
  -22.6049   11.6379   27.0889 C   0  0  0  0  0  0  0  0  0  0  0  0
  -21.8841   12.4224   28.0164 C   0  0  0  0  0  0  0  0  0  0  0  0
  -20.6439   12.9856   27.6625 C   0  0  0  0  0  0  0  0  0  0  0  0
  -20.1570   12.7290   26.3766 C   0  0  0  0  0  0  0  0  0  0  0  0
  -19.0549   13.2078   25.7690 N   0  0  0  0  0  0  0  0  0  0  0  0
  -18.2108   14.3239   26.2103 C   0  0  0  0  0  0  0  0  0  0  0  0
  -18.9442   15.6533   26.1117 C   0  0  0  0  0  0  0  0  0  0  0  0
  -18.0642   16.7835   26.5575 C   0  0  0  0  0  0  0  0  0  0  0  0
  -18.3986   17.4789   27.5564 O   0  0  0  0  0  0  0  0  0  0  0  0
  -16.8642   17.0883   25.8347 N   0  0  0  0  0  0  0  0  0  0  0  0
  -15.9667   18.1771   26.2394 C   0  0  0  0  0  0  0  0  0  0  0  0
  -14.6904   18.1630   25.3947 C   0  0  0  0  0  0  0  0  0  0  0  0
  -15.6155   18.0730   27.6991 C   0  0  0  0  0  0  0  0  0  0  0  0
  -15.6064   19.0967   28.4356 O   0  0  0  0  0  0  0  0  0  0  0  0
  -15.3157   16.8283   28.2443 O   0  0  0  0  0  0  0  0  0  0  0  0
  -18.4343   12.4411   22.4922 H   0  0  0  0  0  0  0  0  0  0  0  0
  -17.1203   12.5099   23.7144 H   0  0  0  0  0  0  0  0  0  0  0  0
  -18.0201   14.0182   23.2558 H   0  0  0  0  0  0  0  0  0  0  0  0
  -22.6264   10.7939   25.0871 H   0  0  0  0  0  0  0  0  0  0  0  0
  -23.5634   11.2199   27.3679 H   0  0  0  0  0  0  0  0  0  0  0  0
  -22.2936   12.6014   29.0020 H   0  0  0  0  0  0  0  0  0  0  0  0
  -20.0990   13.5957   28.3695 H   0  0  0  0  0  0  0  0  0  0  0  0
  -17.8909   14.1412   27.2591 H   0  0  0  0  0  0  0  0  0  0  0  0
  -17.2815   14.3767   25.6048 H   0  0  0  0  0  0  0  0  0  0  0  0
  -19.8503   15.6477   26.7487 H   0  0  0  0  0  0  0  0  0  0  0  0
  -19.2723   15.8052   25.0609 H   0  0  0  0  0  0  0  0  0  0  0  0
  -16.6403   16.5307   24.9787 H   0  0  0  0  0  0  0  0  0  0  0  0
  -16.4812   19.1479   26.0658 H   0  0  0  0  0  0  0  0  0  0  0  0
  -14.0377   19.0198   25.6679 H   0  0  0  0  0  0  0  0  0  0  0  0
  -14.1292   17.2166   25.5518 H   0  0  0  0  0  0  0  0  0  0  0  0
  -14.9495   18.2519   24.3182 H   0  0  0  0  0  0  0  0  0  0  0  0
  -15.3720   15.9876   27.6820 H   0  0  0  0  0  0  0  0  0  0  0  0
  1  2  1  0
  2  3  2  0
  3  4  1  0
  4  5  2  0
  5  6  1  0
  6  7  2  0
  7  8  1  0
  8  9  2  0
  9 10  1  0
 10 11  1  0
 11 12  1  0
 12 13  1  0
 13 14  2  0
 13 15  1  0
 15 16  1  0
 16 17  1  0
 16 18  1  0
 18 19  2  0
 18 20  1  0
 10  2  1  0
  9  4  1  0
  1 21  1  0
  1 22  1  0
  1 23  1  0
  5 24  1  0
  6 25  1  0
  7 26  1  0
  8 27  1  0
 11 28  1  0
 11 29  1  0
 12 30  1  0
 12 31  1  0
 15 32  1  0
 16 33  1  0
 17 34  1  0
 17 35  1  0
 17 36  1  0
 20 37  1  0
M  END
>  <CHROM.1>  (1) 
94.05473758,-179.61362334,-118.02670482,173.14215278,-136.73330981,-2.81045855
-2.46800861,0.72420075,0.75789138

>  <Name>  (1) 
Cc1nc2ccccc2n1CCC(=O)NC(C)C(=O)O

>  <RI>  (1) 
1.69965e+07

>  <Rbt.Current_Directory>  (1) 
/data/out

>  <Rbt.Executable>  (1) 
rbdock ($Id: //depot/dev/client3/rdock/2013.1/src/exe/rbdock.cxx#4 $)

>  <Rbt.Library>  (1) 
libRbt.so (2013.1, Build901 2013/11/27)

>  <Rbt.Parameter_File>  (1) 
/python_libraries/phenodiscovery/docking/templates/RDOCK_TETHER.conf

>  <Rbt.Receptor>  (1) 
/data/out/rdock-opt/grid/rdock-grid.prm

>  <SCORE>  (1) 
-17.6725

>  <SCORE.INTER>  (1) 
-15.8193

>  <SCORE.INTER.CONST>  (1) 
1

>  <SCORE.INTER.POLAR>  (1) 
-1.40938

>  <SCORE.INTER.REPUL>  (1) 
0.0304864

>  <SCORE.INTER.ROT>  (1) 
5

>  <SCORE.INTER.VDW>  (1) 
-21.5799

>  <SCORE.INTER.norm>  (1) 
-0.790967

>  <SCORE.INTRA>  (1) 
-1.85318

>  <SCORE.INTRA.DIHEDRAL>  (1) 
0.0622439

>  <SCORE.INTRA.DIHEDRAL.0>  (1) 
6.7459

>  <SCORE.INTRA.POLAR>  (1) 
0

>  <SCORE.INTRA.POLAR.0>  (1) 
0

>  <SCORE.INTRA.REPUL>  (1) 
0

>  <SCORE.INTRA.REPUL.0>  (1) 
0

>  <SCORE.INTRA.VDW>  (1) 
-1.8843

>  <SCORE.INTRA.VDW.0>  (1) 
-1.43947

>  <SCORE.INTRA.norm>  (1) 
-0.092659

>  <SCORE.RESTR>  (1) 
0

>  <SCORE.RESTR.CAVITY>  (1) 
0

>  <SCORE.RESTR.norm>  (1) 
0

>  <SCORE.SYSTEM>  (1) 
0

>  <SCORE.SYSTEM.CONST>  (1) 
0

>  <SCORE.SYSTEM.DIHEDRAL>  (1) 
0

>  <SCORE.SYSTEM.norm>  (1) 
0

>  <SCORE.heavy>  (1) 
20

>  <SCORE.norm>  (1) 
-0.883626

>  <TETHERED ATOMS>  (1) 
10,13,11,14,15,12,9,6,5,2,4,7,1,3,8

>  <skeledock_score>  (1) 
115

$$$$
