O=C(O)c1n[nH]cc1NC(=O)C1CCC1
     RDKit          3D

 26 27  0  0  0  0  0  0  0  0999 V2000
  -18.3805   15.4307   23.5591 O   0  0  0  0  0  0  0  0  0  0  0  0
  -18.7341   14.5893   24.4259 C   0  0  0  0  0  0  0  0  0  0  0  0
  -19.4326   13.4549   24.0215 O   0  0  0  0  0  0  0  0  0  0  0  0
  -18.3670   14.7757   25.8416 C   0  0  0  0  0  0  0  0  0  0  0  0
  -18.7435   13.9172   26.8117 N   0  0  0  0  0  0  0  0  0  0  0  0
  -18.1099   14.2517   27.9260 N   0  0  0  0  0  0  0  0  0  0  0  0
  -17.3155   15.3126   27.7001 C   0  0  0  0  0  0  0  0  0  0  0  0
  -17.4725   15.6891   26.3858 C   0  0  0  0  0  0  0  0  0  0  0  0
  -16.7650   16.7567   25.7423 N   0  0  0  0  0  0  0  0  0  0  0  0
  -15.6260   17.4208   26.3083 C   0  0  0  0  0  0  0  0  0  0  0  0
  -15.1696   17.0636   27.4286 O   0  0  0  0  0  0  0  0  0  0  0  0
  -14.9859   18.5507   25.5392 C   0  0  0  0  0  0  0  0  0  0  0  0
  -15.8826   19.7463   25.2087 C   0  0  0  0  0  0  0  0  0  0  0  0
  -14.9865   20.6475   26.0471 C   0  0  0  0  0  0  0  0  0  0  0  0
  -14.1186   19.4528   26.4154 C   0  0  0  0  0  0  0  0  0  0  0  0
  -19.7208   12.7457   24.6849 H   0  0  0  0  0  0  0  0  0  0  0  0
  -18.2129   13.7460   28.8332 H   0  0  0  0  0  0  0  0  0  0  0  0
  -16.6776   15.7781   28.4399 H   0  0  0  0  0  0  0  0  0  0  0  0
  -16.9860   16.9404   24.7376 H   0  0  0  0  0  0  0  0  0  0  0  0
  -14.4354   18.1832   24.6450 H   0  0  0  0  0  0  0  0  0  0  0  0
  -16.9139   19.6933   25.6191 H   0  0  0  0  0  0  0  0  0  0  0  0
  -15.8523   20.0107   24.1290 H   0  0  0  0  0  0  0  0  0  0  0  0
  -15.5149   21.0783   26.9256 H   0  0  0  0  0  0  0  0  0  0  0  0
  -14.4413   21.3976   25.4332 H   0  0  0  0  0  0  0  0  0  0  0  0
  -13.0800   19.5478   26.0297 H   0  0  0  0  0  0  0  0  0  0  0  0
  -14.1702   19.2187   27.5025 H   0  0  0  0  0  0  0  0  0  0  0  0
  1  2  2  0
  2  3  1  0
  2  4  1  0
  4  5  2  0
  5  6  1  0
  6  7  1  0
  7  8  2  0
  8  9  1  0
  9 10  1  0
 10 11  2  0
 10 12  1  0
 12 13  1  0
 13 14  1  0
 14 15  1  0
  8  4  1  0
 15 12  1  0
  3 16  1  0
  6 17  1  0
  7 18  1  0
  9 19  1  0
 12 20  1  0
 13 21  1  0
 13 22  1  0
 14 23  1  0
 14 24  1  0
 15 25  1  0
 15 26  1  0
M  END
>  <CHROM.1>  (1) 
178.89196528,178.67380138,-163.59825435,58.98937619,2.34783219,0.70029229
2.37166821

>  <Name>  (1) 
O=C(O)c1n[nH]cc1NC(=O)C1CCC1

>  <RI>  (1) 
2.44163e+07

>  <Rbt.Current_Directory>  (1) 
/data/out

>  <Rbt.Executable>  (1) 
rbdock ($Id: //depot/dev/client3/rdock/2013.1/src/exe/rbdock.cxx#4 $)

>  <Rbt.Library>  (1) 
libRbt.so (2013.1, Build901 2013/11/27)

>  <Rbt.Parameter_File>  (1) 
/python_libraries/phenodiscovery/docking/templates/RDOCK_TETHER.conf

>  <Rbt.Receptor>  (1) 
/data/out/rdock-opt/grid/rdock-grid.prm

>  <SCORE>  (1) 
-18.0094

>  <SCORE.INTER>  (1) 
-11.5834

>  <SCORE.INTER.CONST>  (1) 
1

>  <SCORE.INTER.POLAR>  (1) 
-1.62347

>  <SCORE.INTER.REPUL>  (1) 
0

>  <SCORE.INTER.ROT>  (1) 
3

>  <SCORE.INTER.VDW>  (1) 
-14.4636

>  <SCORE.INTER.norm>  (1) 
-0.772225

>  <SCORE.INTRA>  (1) 
-6.42604

>  <SCORE.INTRA.DIHEDRAL>  (1) 
-18.8409

>  <SCORE.INTRA.DIHEDRAL.0>  (1) 
21.7187

>  <SCORE.INTRA.POLAR>  (1) 
0

>  <SCORE.INTRA.POLAR.0>  (1) 
0

>  <SCORE.INTRA.REPUL>  (1) 
0

>  <SCORE.INTRA.REPUL.0>  (1) 
0

>  <SCORE.INTRA.VDW>  (1) 
2.99439

>  <SCORE.INTRA.VDW.0>  (1) 
-2.43949

>  <SCORE.INTRA.norm>  (1) 
-0.428403

>  <SCORE.RESTR>  (1) 
0

>  <SCORE.RESTR.CAVITY>  (1) 
0

>  <SCORE.RESTR.norm>  (1) 
0

>  <SCORE.SYSTEM>  (1) 
0

>  <SCORE.SYSTEM.CONST>  (1) 
0

>  <SCORE.SYSTEM.DIHEDRAL>  (1) 
0

>  <SCORE.SYSTEM.norm>  (1) 
0

>  <SCORE.heavy>  (1) 
15

>  <SCORE.norm>  (1) 
-1.20063

>  <TETHERED ATOMS>  (1) 
9,10,14,8,11,12,15,13,6,7,4,5

>  <skeledock_score>  (1) 
86

$$$$
