CCOC(=O)c1c(N)n[nH]c1N
     RDKit          3D

 22 22  0  0  0  0  0  0  0  0999 V2000
  -18.3848   14.5411   24.8343 C   0  0  0  0  0  0  0  0  0  0  0  0
  -18.4377   13.5066   25.9513 C   0  0  0  0  0  0  0  0  0  0  0  0
  -19.7683   13.2221   26.3842 O   0  0  0  0  0  0  0  0  0  0  0  0
  -20.7067   12.5305   25.6151 C   0  0  0  0  0  0  0  0  0  0  0  0
  -20.3935   12.1079   24.4716 O   0  0  0  0  0  0  0  0  0  0  0  0
  -22.0619   12.2874   26.1480 C   0  0  0  0  0  0  0  0  0  0  0  0
  -22.5719   12.6122   27.4024 C   0  0  0  0  0  0  0  0  0  0  0  0
  -21.9130   13.3539   28.4304 N   0  0  0  0  0  0  0  0  0  0  0  0
  -23.8303   12.1488   27.5330 N   0  0  0  0  0  0  0  0  0  0  0  0
  -24.1486   11.5362   26.4051 N   0  0  0  0  0  0  0  0  0  0  0  0
  -23.1112   11.5990   25.5523 C   0  0  0  0  0  0  0  0  0  0  0  0
  -23.1197   10.9676   24.2695 N   0  0  0  0  0  0  0  0  0  0  0  0
  -17.3754   14.5349   24.3716 H   0  0  0  0  0  0  0  0  0  0  0  0
  -19.1368   14.2996   24.0536 H   0  0  0  0  0  0  0  0  0  0  0  0
  -18.5704   15.5601   25.2311 H   0  0  0  0  0  0  0  0  0  0  0  0
  -17.9856   12.5620   25.5819 H   0  0  0  0  0  0  0  0  0  0  0  0
  -17.8327   13.8585   26.8146 H   0  0  0  0  0  0  0  0  0  0  0  0
  -22.3942   13.5091   29.3438 H   0  0  0  0  0  0  0  0  0  0  0  0
  -20.9819   13.7981   28.2839 H   0  0  0  0  0  0  0  0  0  0  0  0
  -25.0652   11.0676   26.2310 H   0  0  0  0  0  0  0  0  0  0  0  0
  -22.2771   10.9322   23.6593 H   0  0  0  0  0  0  0  0  0  0  0  0
  -23.9833   10.4835   23.9386 H   0  0  0  0  0  0  0  0  0  0  0  0
  1  2  1  0
  2  3  1  0
  3  4  1  0
  4  5  2  0
  4  6  1  0
  6  7  1  0
  7  8  1  0
  7  9  2  0
  9 10  1  0
 10 11  1  0
 11 12  1  0
 11  6  2  0
  1 13  1  0
  1 14  1  0
  1 15  1  0
  2 16  1  0
  2 17  1  0
  8 18  1  0
  8 19  1  0
 10 20  1  0
 12 21  1  0
 12 22  1  0
M  END
>  <CHROM.1>  (1) 
69.97347533,0.61747807,-3.09707091,3.03772315,0.42443249,1.14676396

>  <Name>  (1) 
CCOC(=O)c1c(N)n[nH]c1N

>  <RI>  (1) 
1.30531e+07

>  <Rbt.Current_Directory>  (1) 
/data/out

>  <Rbt.Executable>  (1) 
rbdock ($Id: //depot/dev/client3/rdock/2013.1/src/exe/rbdock.cxx#4 $)

>  <Rbt.Library>  (1) 
libRbt.so (2013.1, Build901 2013/11/27)

>  <Rbt.Parameter_File>  (1) 
/python_libraries/phenodiscovery/docking/templates/RDOCK_TETHER.conf

>  <Rbt.Receptor>  (1) 
/data/out/rdock-opt/grid/rdock-grid.prm

>  <SCORE>  (1) 
-17.681

>  <SCORE.INTER>  (1) 
-11.6292

>  <SCORE.INTER.CONST>  (1) 
1

>  <SCORE.INTER.POLAR>  (1) 
-1.43082

>  <SCORE.INTER.REPUL>  (1) 
0.0104766

>  <SCORE.INTER.ROT>  (1) 
3

>  <SCORE.INTER.VDW>  (1) 
-15.2168

>  <SCORE.INTER.norm>  (1) 
-0.969104

>  <SCORE.INTRA>  (1) 
-6.05177

>  <SCORE.INTRA.DIHEDRAL>  (1) 
-12.2118

>  <SCORE.INTRA.DIHEDRAL.0>  (1) 
12.7955

>  <SCORE.INTRA.POLAR>  (1) 
-0.106027

>  <SCORE.INTRA.POLAR.0>  (1) 
-0.0865544

>  <SCORE.INTRA.REPUL>  (1) 
0

>  <SCORE.INTRA.REPUL.0>  (1) 
0

>  <SCORE.INTRA.VDW>  (1) 
0.414615

>  <SCORE.INTRA.VDW.0>  (1) 
-1.46516

>  <SCORE.INTRA.norm>  (1) 
-0.504314

>  <SCORE.RESTR>  (1) 
0

>  <SCORE.RESTR.CAVITY>  (1) 
0

>  <SCORE.RESTR.norm>  (1) 
0

>  <SCORE.SYSTEM>  (1) 
0

>  <SCORE.SYSTEM.CONST>  (1) 
0

>  <SCORE.SYSTEM.DIHEDRAL>  (1) 
0

>  <SCORE.SYSTEM.norm>  (1) 
0

>  <SCORE.heavy>  (1) 
12

>  <SCORE.norm>  (1) 
-1.47342

>  <TETHERED ATOMS>  (1) 
6,4,2,3,5,1,7,10,9,11

>  <skeledock_score>  (1) 
68

$$$$
