C[S+]([O-])Cc1cccc(NCc2cc[nH]n2)c1
     RDKit          3D

 32 33  0  0  0  0  0  0  0  0999 V2000
  -26.2679   15.7719   29.1608 C   0  0  0  0  0  0  0  0  0  0  0  0
  -25.2145   14.9992   27.9558 S   0  0  0  0  0  0  0  0  0  0  0  0
  -26.0841   14.7230   26.5453 O   0  0  0  0  0  0  0  0  0  0  0  0
  -24.6021   13.4521   28.5950 C   0  0  0  0  0  0  0  0  0  0  0  0
  -23.6832   12.8039   27.5975 C   0  0  0  0  0  0  0  0  0  0  0  0
  -24.2011   12.1827   26.4484 C   0  0  0  0  0  0  0  0  0  0  0  0
  -23.3419   11.5834   25.5249 C   0  0  0  0  0  0  0  0  0  0  0  0
  -21.9655   11.5800   25.7499 C   0  0  0  0  0  0  0  0  0  0  0  0
  -21.4337   12.1922   26.8902 C   0  0  0  0  0  0  0  0  0  0  0  0
  -20.0256   12.1027   27.1347 N   0  0  0  0  0  0  0  0  0  0  0  0
  -19.2244   13.2415   27.5644 C   0  0  0  0  0  0  0  0  0  0  0  0
  -18.8145   14.0749   26.3892 C   0  0  0  0  0  0  0  0  0  0  0  0
  -19.0103   13.7680   25.0540 C   0  0  0  0  0  0  0  0  0  0  0  0
  -18.4228   14.8150   24.3763 C   0  0  0  0  0  0  0  0  0  0  0  0
  -17.9073   15.6740   25.2735 N   0  0  0  0  0  0  0  0  0  0  0  0
  -18.1376   15.2329   26.4989 N   0  0  0  0  0  0  0  0  0  0  0  0
  -22.2931   12.8100   27.8116 C   0  0  0  0  0  0  0  0  0  0  0  0
  -25.6917   15.9591   30.0902 H   0  0  0  0  0  0  0  0  0  0  0  0
  -27.1258   15.1053   29.3856 H   0  0  0  0  0  0  0  0  0  0  0  0
  -26.6437   16.7353   28.7595 H   0  0  0  0  0  0  0  0  0  0  0  0
  -25.4708   12.7986   28.8242 H   0  0  0  0  0  0  0  0  0  0  0  0
  -24.0532   13.6367   29.5426 H   0  0  0  0  0  0  0  0  0  0  0  0
  -25.2680   12.1692   26.2632 H   0  0  0  0  0  0  0  0  0  0  0  0
  -23.7459   11.1089   24.6398 H   0  0  0  0  0  0  0  0  0  0  0  0
  -21.3102   11.0949   25.0373 H   0  0  0  0  0  0  0  0  0  0  0  0
  -19.5134   11.2790   26.7446 H   0  0  0  0  0  0  0  0  0  0  0  0
  -19.7924   13.8540   28.2965 H   0  0  0  0  0  0  0  0  0  0  0  0
  -18.3064   12.8708   28.0686 H   0  0  0  0  0  0  0  0  0  0  0  0
  -19.5074   12.9030   24.6353 H   0  0  0  0  0  0  0  0  0  0  0  0
  -18.3691   14.9384   23.3029 H   0  0  0  0  0  0  0  0  0  0  0  0
  -17.3982   16.5583   25.0538 H   0  0  0  0  0  0  0  0  0  0  0  0
  -21.8853   13.2669   28.7050 H   0  0  0  0  0  0  0  0  0  0  0  0
  1  2  1  0
  2  3  1  0
  2  4  1  0
  4  5  1  0
  5  6  2  0
  6  7  1  0
  7  8  2  0
  8  9  1  0
  9 10  1  0
 10 11  1  0
 11 12  1  0
 12 13  1  0
 13 14  2  0
 14 15  1  0
 15 16  1  0
  9 17  2  0
 17  5  1  0
 16 12  2  0
  1 18  1  0
  1 19  1  0
  1 20  1  0
  4 21  1  0
  4 22  1  0
  6 23  1  0
  7 24  1  0
  8 25  1  0
 10 26  1  0
 11 27  1  0
 11 28  1  0
 13 29  1  0
 14 30  1  0
 15 31  1  0
 17 32  1  0
M  END
>  <CHROM.1>  (1) 
-178.65887317,-74.78344390,135.94292951,-83.30835460,-7.06141026,-2.88791303
-0.48419781,-1.42766891

>  <Name>  (1) 
C[S+]([O-])Cc1cccc(NCc2cc[nH]n2)c1

>  <RI>  (1) 
2.85562e+07

>  <Rbt.Current_Directory>  (1) 
/data/out

>  <Rbt.Executable>  (1) 
rbdock ($Id: //depot/dev/client3/rdock/2013.1/src/exe/rbdock.cxx#4 $)

>  <Rbt.Library>  (1) 
libRbt.so (2013.1, Build901 2013/11/27)

>  <Rbt.Parameter_File>  (1) 
/python_libraries/phenodiscovery/docking/templates/RDOCK_TETHER.conf

>  <Rbt.Receptor>  (1) 
/data/out/rdock-opt/grid/rdock-grid.prm

>  <SCORE>  (1) 
-17.4278

>  <SCORE.INTER>  (1) 
-16.9437

>  <SCORE.INTER.CONST>  (1) 
1

>  <SCORE.INTER.POLAR>  (1) 
-1.47519

>  <SCORE.INTER.REPUL>  (1) 
0

>  <SCORE.INTER.ROT>  (1) 
5

>  <SCORE.INTER.VDW>  (1) 
-22.328

>  <SCORE.INTER.norm>  (1) 
-0.996687

>  <SCORE.INTRA>  (1) 
-0.48417

>  <SCORE.INTRA.DIHEDRAL>  (1) 
-4.15192

>  <SCORE.INTRA.DIHEDRAL.0>  (1) 
13.4325

>  <SCORE.INTRA.POLAR>  (1) 
0

>  <SCORE.INTRA.POLAR.0>  (1) 
0

>  <SCORE.INTRA.REPUL>  (1) 
0

>  <SCORE.INTRA.REPUL.0>  (1) 
0

>  <SCORE.INTRA.VDW>  (1) 
1.59179

>  <SCORE.INTRA.VDW.0>  (1) 
-3.20062

>  <SCORE.INTRA.norm>  (1) 
-0.0284806

>  <SCORE.RESTR>  (1) 
0

>  <SCORE.RESTR.CAVITY>  (1) 
0

>  <SCORE.RESTR.norm>  (1) 
0

>  <SCORE.SYSTEM>  (1) 
0

>  <SCORE.SYSTEM.CONST>  (1) 
0

>  <SCORE.SYSTEM.DIHEDRAL>  (1) 
0

>  <SCORE.SYSTEM.norm>  (1) 
0

>  <SCORE.heavy>  (1) 
17

>  <SCORE.norm>  (1) 
-1.02517

>  <TETHERED ATOMS>  (1) 
10,11,15,9,12,14,16,13,6,7,17,8,5

>  <skeledock_score>  (1) 
94

$$$$
