O=C(O)CCNC(=O)CCn1cnc2ccccc21
     RDKit          3D

 34 35  0  0  0  0  0  0  0  0999 V2000
  -16.3588   19.6806   24.7994 O   0  0  0  0  0  0  0  0  0  0  0  0
  -15.2277   19.1906   24.5419 C   0  0  0  0  0  0  0  0  0  0  0  0
  -14.6479   19.4231   23.2982 O   0  0  0  0  0  0  0  0  0  0  0  0
  -14.5393   18.3266   25.5543 C   0  0  0  0  0  0  0  0  0  0  0  0
  -15.5011   17.9576   26.6860 C   0  0  0  0  0  0  0  0  0  0  0  0
  -16.6321   17.1906   26.1681 N   0  0  0  0  0  0  0  0  0  0  0  0
  -17.3798   16.2723   26.9775 C   0  0  0  0  0  0  0  0  0  0  0  0
  -17.0885   16.1135   28.1944 O   0  0  0  0  0  0  0  0  0  0  0  0
  -18.5371   15.5192   26.3894 C   0  0  0  0  0  0  0  0  0  0  0  0
  -18.2171   14.0244   26.2945 C   0  0  0  0  0  0  0  0  0  0  0  0
  -19.3135   13.3061   25.6471 N   0  0  0  0  0  0  0  0  0  0  0  0
  -19.3114   12.8051   24.3874 C   0  0  0  0  0  0  0  0  0  0  0  0
  -20.4616   12.1596   24.0646 N   0  0  0  0  0  0  0  0  0  0  0  0
  -21.1982   12.2717   25.1854 C   0  0  0  0  0  0  0  0  0  0  0  0
  -22.4779   11.7712   25.4107 C   0  0  0  0  0  0  0  0  0  0  0  0
  -23.0560   11.9986   26.6735 C   0  0  0  0  0  0  0  0  0  0  0  0
  -22.3467   12.7107   27.6683 C   0  0  0  0  0  0  0  0  0  0  0  0
  -21.0529   13.2035   27.4088 C   0  0  0  0  0  0  0  0  0  0  0  0
  -20.5130   12.9616   26.1442 C   0  0  0  0  0  0  0  0  0  0  0  0
  -15.1110   19.9968   22.6035 H   0  0  0  0  0  0  0  0  0  0  0  0
  -13.6580   18.8670   25.9617 H   0  0  0  0  0  0  0  0  0  0  0  0
  -14.1744   17.4009   25.0592 H   0  0  0  0  0  0  0  0  0  0  0  0
  -15.8833   18.8901   27.1568 H   0  0  0  0  0  0  0  0  0  0  0  0
  -14.9753   17.3691   27.4697 H   0  0  0  0  0  0  0  0  0  0  0  0
  -16.9253   17.3479   25.1775 H   0  0  0  0  0  0  0  0  0  0  0  0
  -18.7588   15.9183   25.3749 H   0  0  0  0  0  0  0  0  0  0  0  0
  -19.4374   15.6704   27.0226 H   0  0  0  0  0  0  0  0  0  0  0  0
  -18.0320   13.6002   27.3049 H   0  0  0  0  0  0  0  0  0  0  0  0
  -17.2885   13.8802   25.6977 H   0  0  0  0  0  0  0  0  0  0  0  0
  -18.4783   12.9050   23.7036 H   0  0  0  0  0  0  0  0  0  0  0  0
  -23.0097   11.2246   24.6428 H   0  0  0  0  0  0  0  0  0  0  0  0
  -24.0493   11.6245   26.8849 H   0  0  0  0  0  0  0  0  0  0  0  0
  -22.8009   12.8783   28.6362 H   0  0  0  0  0  0  0  0  0  0  0  0
  -20.5034   13.7489   28.1646 H   0  0  0  0  0  0  0  0  0  0  0  0
  1  2  2  0
  2  3  1  0
  2  4  1  0
  4  5  1  0
  5  6  1  0
  6  7  1  0
  7  8  2  0
  7  9  1  0
  9 10  1  0
 10 11  1  0
 11 12  1  0
 12 13  2  0
 13 14  1  0
 14 15  2  0
 15 16  1  0
 16 17  2  0
 17 18  1  0
 18 19  2  0
 19 11  1  0
 19 14  1  0
  3 20  1  0
  4 21  1  0
  4 22  1  0
  5 23  1  0
  5 24  1  0
  6 25  1  0
  9 26  1  0
  9 27  1  0
 10 28  1  0
 10 29  1  0
 12 30  1  0
 15 31  1  0
 16 32  1  0
 17 33  1  0
 18 34  1  0
M  END
>  <CHROM.1>  (1) 
1.35618839,11.18597182,61.75509221,154.21452353,112.04649096,-176.56163314
106.24853469,0.47463265,0.58742165,1.08110340

>  <Name>  (1) 
O=C(O)CCNC(=O)CCn1cnc2ccccc21

>  <RI>  (1) 
3.30447e+07

>  <Rbt.Current_Directory>  (1) 
/data/out

>  <Rbt.Executable>  (1) 
rbdock ($Id: //depot/dev/client3/rdock/2013.1/src/exe/rbdock.cxx#4 $)

>  <Rbt.Library>  (1) 
libRbt.so (2013.1, Build901 2013/11/27)

>  <Rbt.Parameter_File>  (1) 
/python_libraries/phenodiscovery/docking/templates/RDOCK_TETHER.conf

>  <Rbt.Receptor>  (1) 
/data/out/rdock-opt/grid/rdock-grid.prm

>  <SCORE>  (1) 
-16.7307

>  <SCORE.INTER>  (1) 
-17.8408

>  <SCORE.INTER.CONST>  (1) 
1

>  <SCORE.INTER.POLAR>  (1) 
-2.68931

>  <SCORE.INTER.REPUL>  (1) 
0.043165

>  <SCORE.INTER.ROT>  (1) 
6

>  <SCORE.INTER.VDW>  (1) 
-20.313

>  <SCORE.INTER.norm>  (1) 
-0.938991

>  <SCORE.INTRA>  (1) 
1.11009

>  <SCORE.INTRA.DIHEDRAL>  (1) 
0.222498

>  <SCORE.INTRA.DIHEDRAL.0>  (1) 
7.24649

>  <SCORE.INTRA.POLAR>  (1) 
0

>  <SCORE.INTRA.POLAR.0>  (1) 
0

>  <SCORE.INTRA.REPUL>  (1) 
0

>  <SCORE.INTRA.REPUL.0>  (1) 
0

>  <SCORE.INTRA.VDW>  (1) 
0.998839

>  <SCORE.INTRA.VDW.0>  (1) 
-2.16467

>  <SCORE.INTRA.norm>  (1) 
0.0584257

>  <SCORE.RESTR>  (1) 
0

>  <SCORE.RESTR.CAVITY>  (1) 
0

>  <SCORE.RESTR.norm>  (1) 
0

>  <SCORE.SYSTEM>  (1) 
0

>  <SCORE.SYSTEM.CONST>  (1) 
0

>  <SCORE.SYSTEM.DIHEDRAL>  (1) 
0

>  <SCORE.SYSTEM.norm>  (1) 
0

>  <SCORE.heavy>  (1) 
19

>  <SCORE.norm>  (1) 
-0.880565

>  <TETHERED ATOMS>  (1) 
9,6,8,7,10,11,16,19,14,12,15,17,18,13

>  <skeledock_score>  (1) 
100

$$$$
