CCn1cc(NC(=O)C2(S(C)(=O)=O)CCC2)cn1
     RDKit          3D

 35 36  0  0  0  0  0  0  0  0999 V2000
  -20.6465   13.3215   27.9726 C   0  0  0  0  0  0  0  0  0  0  0  0
  -19.1537   13.1080   27.7463 C   0  0  0  0  0  0  0  0  0  0  0  0
  -18.6287   14.1151   26.8281 N   0  0  0  0  0  0  0  0  0  0  0  0
  -17.8259   15.1471   27.1561 C   0  0  0  0  0  0  0  0  0  0  0  0
  -17.5882   15.8658   26.0013 C   0  0  0  0  0  0  0  0  0  0  0  0
  -16.8749   17.1025   25.8568 N   0  0  0  0  0  0  0  0  0  0  0  0
  -16.0537   17.6792   26.8871 C   0  0  0  0  0  0  0  0  0  0  0  0
  -15.9112   17.0835   27.9889 O   0  0  0  0  0  0  0  0  0  0  0  0
  -15.4266   19.0459   26.7144 C   0  0  0  0  0  0  0  0  0  0  0  0
  -16.5981   20.3467   27.1428 S   0  0  0  0  0  0  0  0  0  0  0  0
  -18.0128   20.3968   26.0554 C   0  0  0  0  0  0  0  0  0  0  0  0
  -15.8985   21.6753   27.0763 O   0  0  0  0  0  0  0  0  0  0  0  0
  -17.0826   20.1217   28.5475 O   0  0  0  0  0  0  0  0  0  0  0  0
  -14.7154   19.2941   25.3831 C   0  0  0  0  0  0  0  0  0  0  0  0
  -13.4044   19.5392   26.1100 C   0  0  0  0  0  0  0  0  0  0  0  0
  -14.0766   19.1921   27.4252 C   0  0  0  0  0  0  0  0  0  0  0  0
  -18.2894   15.2201   25.0040 C   0  0  0  0  0  0  0  0  0  0  0  0
  -18.9099   14.1474   25.5329 N   0  0  0  0  0  0  0  0  0  0  0  0
  -21.2003   13.2135   27.0160 H   0  0  0  0  0  0  0  0  0  0  0  0
  -20.8271   14.3357   28.3879 H   0  0  0  0  0  0  0  0  0  0  0  0
  -21.0266   12.5659   28.6920 H   0  0  0  0  0  0  0  0  0  0  0  0
  -18.9821   12.0964   27.3201 H   0  0  0  0  0  0  0  0  0  0  0  0
  -18.6270   13.1666   28.7240 H   0  0  0  0  0  0  0  0  0  0  0  0
  -17.4893   15.3741   28.1588 H   0  0  0  0  0  0  0  0  0  0  0  0
  -16.9431   17.5834   24.9330 H   0  0  0  0  0  0  0  0  0  0  0  0
  -17.6872   20.5589   25.0085 H   0  0  0  0  0  0  0  0  0  0  0  0
  -18.5826   19.4486   26.1227 H   0  0  0  0  0  0  0  0  0  0  0  0
  -18.6759   21.2336   26.3574 H   0  0  0  0  0  0  0  0  0  0  0  0
  -14.6329   18.3951   24.7348 H   0  0  0  0  0  0  0  0  0  0  0  0
  -15.0709   20.1861   24.8256 H   0  0  0  0  0  0  0  0  0  0  0  0
  -12.6095   18.8149   25.8267 H   0  0  0  0  0  0  0  0  0  0  0  0
  -13.0874   20.6043   26.0642 H   0  0  0  0  0  0  0  0  0  0  0  0
  -14.0310   20.0218   28.1618 H   0  0  0  0  0  0  0  0  0  0  0  0
  -13.6781   18.2388   27.8390 H   0  0  0  0  0  0  0  0  0  0  0  0
  -18.3545   15.5156   23.9654 H   0  0  0  0  0  0  0  0  0  0  0  0
  1  2  1  0
  2  3  1  0
  3  4  1  0
  4  5  2  0
  5  6  1  0
  6  7  1  0
  7  8  2  0
  7  9  1  0
  9 10  1  0
 10 11  1  0
 10 12  2  0
 10 13  2  0
  9 14  1  0
 14 15  1  0
 15 16  1  0
  5 17  1  0
 17 18  2  0
 18  3  1  0
 16  9  1  0
  1 19  1  0
  1 20  1  0
  1 21  1  0
  2 22  1  0
  2 23  1  0
  4 24  1  0
  6 25  1  0
 11 26  1  0
 11 27  1  0
 11 28  1  0
 14 29  1  0
 14 30  1  0
 15 31  1  0
 15 32  1  0
 16 33  1  0
 16 34  1  0
 17 35  1  0
M  END
>  <CHROM.1>  (1) 
108.02766227,12.63797016,83.17317338,-64.36234127,-0.18788109,0.81767958
1.75001529

>  <Name>  (1) 
CCn1cc(NC(=O)C2(S(C)(=O)=O)CCC2)cn1

>  <RI>  (1) 
3.29524e+07

>  <Rbt.Current_Directory>  (1) 
/data/out

>  <Rbt.Executable>  (1) 
rbdock ($Id: //depot/dev/client3/rdock/2013.1/src/exe/rbdock.cxx#4 $)

>  <Rbt.Library>  (1) 
libRbt.so (2013.1, Build901 2013/11/27)

>  <Rbt.Parameter_File>  (1) 
/python_libraries/phenodiscovery/docking/templates/RDOCK_TETHER.conf

>  <Rbt.Receptor>  (1) 
/data/out/rdock-opt/grid/rdock-grid.prm

>  <SCORE>  (1) 
-15.5268

>  <SCORE.INTER>  (1) 
-11.4779

>  <SCORE.INTER.CONST>  (1) 
1

>  <SCORE.INTER.POLAR>  (1) 
-1.05687

>  <SCORE.INTER.REPUL>  (1) 
0

>  <SCORE.INTER.ROT>  (1) 
4

>  <SCORE.INTER.VDW>  (1) 
-17.2845

>  <SCORE.INTER.norm>  (1) 
-0.637658

>  <SCORE.INTRA>  (1) 
-4.049

>  <SCORE.INTRA.DIHEDRAL>  (1) 
-7.91745

>  <SCORE.INTRA.DIHEDRAL.0>  (1) 
13.4368

>  <SCORE.INTRA.POLAR>  (1) 
0

>  <SCORE.INTRA.POLAR.0>  (1) 
0

>  <SCORE.INTRA.REPUL>  (1) 
0

>  <SCORE.INTRA.REPUL.0>  (1) 
0

>  <SCORE.INTRA.VDW>  (1) 
-0.0902712

>  <SCORE.INTRA.VDW.0>  (1) 
-3.41015

>  <SCORE.INTRA.norm>  (1) 
-0.224944

>  <SCORE.RESTR>  (1) 
0

>  <SCORE.RESTR.CAVITY>  (1) 
0

>  <SCORE.RESTR.norm>  (1) 
0

>  <SCORE.SYSTEM>  (1) 
0

>  <SCORE.SYSTEM.CONST>  (1) 
0

>  <SCORE.SYSTEM.DIHEDRAL>  (1) 
0

>  <SCORE.SYSTEM.norm>  (1) 
0

>  <SCORE.heavy>  (1) 
18

>  <SCORE.norm>  (1) 
-0.862603

>  <TETHERED ATOMS>  (1) 
8,7,6,5,9,15,14,16,17,2,18,1,3,4

>  <skeledock_score>  (1) 
103

$$$$
