CS(=O)(=O)c1cccc(CS(=O)(=O)Cl)c1
     RDKit          3D

 24 24  0  0  0  0  0  0  0  0999 V2000
  -18.7507   12.7668   27.9533 C   0  0  0  0  0  0  0  0  0  0  0  0
  -19.5226   13.7769   26.7134 S   0  0  0  0  0  0  0  0  0  0  0  0
  -18.7020   13.7769   25.4621 O   0  0  0  0  0  0  0  0  0  0  0  0
  -19.5938   15.1888   27.1943 O   0  0  0  0  0  0  0  0  0  0  0  0
  -21.1415   13.1762   26.3838 C   0  0  0  0  0  0  0  0  0  0  0  0
  -21.3951   12.4324   25.2244 C   0  0  0  0  0  0  0  0  0  0  0  0
  -22.6813   11.9535   24.9658 C   0  0  0  0  0  0  0  0  0  0  0  0
  -23.7185   12.2067   25.8673 C   0  0  0  0  0  0  0  0  0  0  0  0
  -23.4728   12.9350   27.0423 C   0  0  0  0  0  0  0  0  0  0  0  0
  -24.5924   13.2328   28.0004 C   0  0  0  0  0  0  0  0  0  0  0  0
  -25.5462   14.6304   27.4333 S   0  0  0  0  0  0  0  0  0  0  0  0
  -25.8677   14.4698   25.9742 O   0  0  0  0  0  0  0  0  0  0  0  0
  -24.7462   15.8869   27.6286 O   0  0  0  0  0  0  0  0  0  0  0  0
  -27.3046   14.7752   28.5093 Cl  0  0  0  0  0  0  0  0  0  0  0  0
  -22.1796   13.4226   27.2929 C   0  0  0  0  0  0  0  0  0  0  0  0
  -18.6843   11.7205   27.5900 H   0  0  0  0  0  0  0  0  0  0  0  0
  -19.3546   12.7954   28.8837 H   0  0  0  0  0  0  0  0  0  0  0  0
  -17.7308   13.1498   28.1635 H   0  0  0  0  0  0  0  0  0  0  0  0
  -20.6001   12.2241   24.5200 H   0  0  0  0  0  0  0  0  0  0  0  0
  -22.8752   11.3857   24.0651 H   0  0  0  0  0  0  0  0  0  0  0  0
  -24.7124   11.8354   25.6496 H   0  0  0  0  0  0  0  0  0  0  0  0
  -24.1837   13.4578   29.0086 H   0  0  0  0  0  0  0  0  0  0  0  0
  -25.2640   12.3534   28.0996 H   0  0  0  0  0  0  0  0  0  0  0  0
  -21.9831   13.9931   28.1926 H   0  0  0  0  0  0  0  0  0  0  0  0
  1  2  1  0
  2  3  2  0
  2  4  2  0
  2  5  1  0
  5  6  2  0
  6  7  1  0
  7  8  2  0
  8  9  1  0
  9 10  1  0
 10 11  1  0
 11 12  2  0
 11 13  2  0
 11 14  1  0
  9 15  2  0
 15  5  1  0
  1 16  1  0
  1 17  1  0
  1 18  1  0
  6 19  1  0
  7 20  1  0
  8 21  1  0
 10 22  1  0
 10 23  1  0
 15 24  1  0
M  END
>  <CHROM.1>  (1) 
-103.14657700,-80.70078616,47.11481172,2.80863772,-0.23501130,-2.07843094

>  <Name>  (1) 
CS(=O)(=O)c1cccc(CS(=O)(=O)Cl)c1

>  <RI>  (1) 
3.11203e+07

>  <Rbt.Current_Directory>  (1) 
/data/out

>  <Rbt.Executable>  (1) 
rbdock ($Id: //depot/dev/client3/rdock/2013.1/src/exe/rbdock.cxx#4 $)

>  <Rbt.Library>  (1) 
libRbt.so (2013.1, Build901 2013/11/27)

>  <Rbt.Parameter_File>  (1) 
/python_libraries/phenodiscovery/docking/templates/RDOCK_TETHER.conf

>  <Rbt.Receptor>  (1) 
/data/out/rdock-opt/grid/rdock-grid.prm

>  <SCORE>  (1) 
-16.3848

>  <SCORE.INTER>  (1) 
-16.9008

>  <SCORE.INTER.CONST>  (1) 
1

>  <SCORE.INTER.POLAR>  (1) 
-1.42523

>  <SCORE.INTER.REPUL>  (1) 
0

>  <SCORE.INTER.ROT>  (1) 
3

>  <SCORE.INTER.VDW>  (1) 
-20.4551

>  <SCORE.INTER.norm>  (1) 
-1.12672

>  <SCORE.INTRA>  (1) 
0.516043

>  <SCORE.INTRA.DIHEDRAL>  (1) 
0.390678

>  <SCORE.INTRA.DIHEDRAL.0>  (1) 
1.93355

>  <SCORE.INTRA.POLAR>  (1) 
0

>  <SCORE.INTRA.POLAR.0>  (1) 
0

>  <SCORE.INTRA.REPUL>  (1) 
0

>  <SCORE.INTRA.REPUL.0>  (1) 
0

>  <SCORE.INTRA.VDW>  (1) 
0.320704

>  <SCORE.INTRA.VDW.0>  (1) 
-2.7775

>  <SCORE.INTRA.norm>  (1) 
0.0344029

>  <SCORE.RESTR>  (1) 
0

>  <SCORE.RESTR.CAVITY>  (1) 
0

>  <SCORE.RESTR.norm>  (1) 
0

>  <SCORE.SYSTEM>  (1) 
0

>  <SCORE.SYSTEM.CONST>  (1) 
0

>  <SCORE.SYSTEM.DIHEDRAL>  (1) 
0

>  <SCORE.SYSTEM.norm>  (1) 
0

>  <SCORE.heavy>  (1) 
15

>  <SCORE.norm>  (1) 
-1.09232

>  <TETHERED ATOMS>  (1) 
15,5,1,2,9,7,8,6,4,3

>  <skeledock_score>  (1) 
70

$$$$
