CCNC(=O)CN(C)c1ncccc1F
     RDKit          3D

 29 29  0  0  0  0  0  0  0  0999 V2000
  -16.1260   12.5322   22.2289 C   0  0  0  0  0  0  0  0  0  0  0  0
  -17.2171   11.4784   22.3862 C   0  0  0  0  0  0  0  0  0  0  0  0
  -17.5317   11.2582   23.7970 N   0  0  0  0  0  0  0  0  0  0  0  0
  -18.4677   12.0918   24.4937 C   0  0  0  0  0  0  0  0  0  0  0  0
  -18.9528   13.1077   23.9280 O   0  0  0  0  0  0  0  0  0  0  0  0
  -18.8572   11.7727   25.9047 C   0  0  0  0  0  0  0  0  0  0  0  0
  -19.8003   12.7493   26.4642 N   0  0  0  0  0  0  0  0  0  0  0  0
  -19.2621   13.7947   27.3341 C   0  0  0  0  0  0  0  0  0  0  0  0
  -21.2099   12.4477   26.4871 C   0  0  0  0  0  0  0  0  0  0  0  0
  -21.9721   12.8818   27.5292 N   0  0  0  0  0  0  0  0  0  0  0  0
  -23.3112   12.6591   27.5900 C   0  0  0  0  0  0  0  0  0  0  0  0
  -23.9505   11.9630   26.5639 C   0  0  0  0  0  0  0  0  0  0  0  0
  -23.1994   11.4989   25.4840 C   0  0  0  0  0  0  0  0  0  0  0  0
  -21.8237   11.7367   25.4374 C   0  0  0  0  0  0  0  0  0  0  0  0
  -21.1119   11.3071   24.3658 F   0  0  0  0  0  0  0  0  0  0  0  0
  -16.4629   13.4985   22.6605 H   0  0  0  0  0  0  0  0  0  0  0  0
  -15.1997   12.2019   22.7459 H   0  0  0  0  0  0  0  0  0  0  0  0
  -15.9018   12.6797   21.1514 H   0  0  0  0  0  0  0  0  0  0  0  0
  -16.8667   10.5259   21.9329 H   0  0  0  0  0  0  0  0  0  0  0  0
  -18.1308   11.8157   21.8512 H   0  0  0  0  0  0  0  0  0  0  0  0
  -17.0912   10.4606   24.3103 H   0  0  0  0  0  0  0  0  0  0  0  0
  -19.3190   10.7623   25.9390 H   0  0  0  0  0  0  0  0  0  0  0  0
  -17.9343   11.7173   26.5238 H   0  0  0  0  0  0  0  0  0  0  0  0
  -20.0427   14.5500   27.5686 H   0  0  0  0  0  0  0  0  0  0  0  0
  -18.8862   13.3463   28.2777 H   0  0  0  0  0  0  0  0  0  0  0  0
  -18.4268   14.3189   26.8231 H   0  0  0  0  0  0  0  0  0  0  0  0
  -23.8793   13.0254   28.4346 H   0  0  0  0  0  0  0  0  0  0  0  0
  -25.0172   11.7847   26.6055 H   0  0  0  0  0  0  0  0  0  0  0  0
  -23.6849   10.9607   24.6801 H   0  0  0  0  0  0  0  0  0  0  0  0
  1  2  1  0
  2  3  1  0
  3  4  1  0
  4  5  2  0
  4  6  1  0
  6  7  1  0
  7  8  1  0
  7  9  1  0
  9 10  2  0
 10 11  1  0
 11 12  2  0
 12 13  1  0
 13 14  2  0
 14 15  1  0
 14  9  1  0
  1 16  1  0
  1 17  1  0
  1 18  1  0
  2 19  1  0
  2 20  1  0
  3 21  1  0
  6 22  1  0
  6 23  1  0
  8 24  1  0
  8 25  1  0
  8 26  1  0
 11 27  1  0
 12 28  1  0
 13 29  1  0
M  END
>  <CHROM.1>  (1) 
84.88107487,178.75998473,-99.39311520,144.94814320,-2.82075456,-0.25559544
-2.02417903

>  <Name>  (1) 
CCNC(=O)CN(C)c1ncccc1F

>  <RI>  (1) 
2.17419e+07

>  <Rbt.Current_Directory>  (1) 
/data/out

>  <Rbt.Executable>  (1) 
rbdock ($Id: //depot/dev/client3/rdock/2013.1/src/exe/rbdock.cxx#4 $)

>  <Rbt.Library>  (1) 
libRbt.so (2013.1, Build901 2013/11/27)

>  <Rbt.Parameter_File>  (1) 
/python_libraries/phenodiscovery/docking/templates/RDOCK_TETHER.conf

>  <Rbt.Receptor>  (1) 
/data/out/rdock-opt/grid/rdock-grid.prm

>  <SCORE>  (1) 
-16.2658

>  <SCORE.INTER>  (1) 
-14.2496

>  <SCORE.INTER.CONST>  (1) 
1

>  <SCORE.INTER.POLAR>  (1) 
-0.844869

>  <SCORE.INTER.REPUL>  (1) 
0

>  <SCORE.INTER.ROT>  (1) 
4

>  <SCORE.INTER.VDW>  (1) 
-20.777

>  <SCORE.INTER.norm>  (1) 
-0.949971

>  <SCORE.INTRA>  (1) 
-2.01623

>  <SCORE.INTRA.DIHEDRAL>  (1) 
-6.70437

>  <SCORE.INTRA.DIHEDRAL.0>  (1) 
13.3357

>  <SCORE.INTRA.POLAR>  (1) 
0

>  <SCORE.INTRA.POLAR.0>  (1) 
0

>  <SCORE.INTRA.REPUL>  (1) 
0

>  <SCORE.INTRA.REPUL.0>  (1) 
0

>  <SCORE.INTRA.VDW>  (1) 
1.33596

>  <SCORE.INTRA.VDW.0>  (1) 
-2.77792

>  <SCORE.INTRA.norm>  (1) 
-0.134415

>  <SCORE.RESTR>  (1) 
0

>  <SCORE.RESTR.CAVITY>  (1) 
0

>  <SCORE.RESTR.norm>  (1) 
0

>  <SCORE.SYSTEM>  (1) 
0

>  <SCORE.SYSTEM.CONST>  (1) 
0

>  <SCORE.SYSTEM.DIHEDRAL>  (1) 
0

>  <SCORE.SYSTEM.norm>  (1) 
0

>  <SCORE.heavy>  (1) 
15

>  <SCORE.norm>  (1) 
-1.08439

>  <TETHERED ATOMS>  (1) 
9,15,14,13,12,7,11,10,8,6,5,4

>  <skeledock_score>  (1) 
86

$$$$
