CCn1cc(NC(=O)[C@@H]2CC[C@H]2C(=O)O)cn1
     RDKit          3D

 32 33  0  0  0  0  0  0  0  0999 V2000
  -20.6876   12.7378   26.8351 C   0  0  0  0  0  0  0  0  0  0  0  0
  -19.4484   12.7988   25.9588 C   0  0  0  0  0  0  0  0  0  0  0  0
  -18.5591   13.8869   26.3589 N   0  0  0  0  0  0  0  0  0  0  0  0
  -17.9571   14.7711   25.5369 C   0  0  0  0  0  0  0  0  0  0  0  0
  -17.1161   15.5387   26.3055 C   0  0  0  0  0  0  0  0  0  0  0  0
  -16.3040   16.6285   25.8538 N   0  0  0  0  0  0  0  0  0  0  0  0
  -15.8001   17.5924   26.7879 C   0  0  0  0  0  0  0  0  0  0  0  0
  -16.2681   17.6166   27.9562 O   0  0  0  0  0  0  0  0  0  0  0  0
  -14.8150   18.6720   26.4092 C   0  0  0  0  0  0  0  0  0  0  0  0
  -14.6262   19.8476   27.3631 C   0  0  0  0  0  0  0  0  0  0  0  0
  -15.1154   20.8144   26.2901 C   0  0  0  0  0  0  0  0  0  0  0  0
  -15.3819   19.6388   25.3607 C   0  0  0  0  0  0  0  0  0  0  0  0
  -14.5935   19.6817   24.0750 C   0  0  0  0  0  0  0  0  0  0  0  0
  -14.2986   20.7968   23.5711 O   0  0  0  0  0  0  0  0  0  0  0  0
  -14.1821   18.5169   23.4281 O   0  0  0  0  0  0  0  0  0  0  0  0
  -17.2450   15.0744   27.5975 C   0  0  0  0  0  0  0  0  0  0  0  0
  -18.1273   14.0545   27.6008 N   0  0  0  0  0  0  0  0  0  0  0  0
  -21.3153   11.8726   26.5343 H   0  0  0  0  0  0  0  0  0  0  0  0
  -20.3944   12.6158   27.8994 H   0  0  0  0  0  0  0  0  0  0  0  0
  -21.2865   13.6661   26.7247 H   0  0  0  0  0  0  0  0  0  0  0  0
  -19.7549   12.9464   24.9009 H   0  0  0  0  0  0  0  0  0  0  0  0
  -18.9095   11.8286   26.0276 H   0  0  0  0  0  0  0  0  0  0  0  0
  -18.1060   14.8372   24.4668 H   0  0  0  0  0  0  0  0  0  0  0  0
  -16.3459   16.8829   24.8422 H   0  0  0  0  0  0  0  0  0  0  0  0
  -13.8364   18.2267   26.1216 H   0  0  0  0  0  0  0  0  0  0  0  0
  -13.5589   20.0146   27.6267 H   0  0  0  0  0  0  0  0  0  0  0  0
  -15.3038   19.8506   28.2427 H   0  0  0  0  0  0  0  0  0  0  0  0
  -16.0501   21.3384   26.5880 H   0  0  0  0  0  0  0  0  0  0  0  0
  -14.3154   21.5059   25.9452 H   0  0  0  0  0  0  0  0  0  0  0  0
  -16.4743   19.5075   25.1813 H   0  0  0  0  0  0  0  0  0  0  0  0
  -14.4108   17.5973   23.7852 H   0  0  0  0  0  0  0  0  0  0  0  0
  -16.7327   15.4482   28.4739 H   0  0  0  0  0  0  0  0  0  0  0  0
  1  2  1  0
  2  3  1  0
  3  4  1  0
  4  5  2  0
  5  6  1  0
  6  7  1  0
  7  8  2  0
  7  9  1  0
  9 10  1  0
 10 11  1  0
 11 12  1  0
 12 13  1  0
 13 14  2  0
 13 15  1  0
  5 16  1  0
 16 17  2  0
 17  3  1  0
 12  9  1  0
  1 18  1  0
  1 19  1  0
  1 20  1  0
  2 21  1  0
  2 22  1  0
  4 23  1  0
  6 24  1  0
  9 25  1  0
 10 26  1  0
 10 27  1  0
 11 28  1  0
 11 29  1  0
 12 30  1  0
 15 31  1  0
 16 32  1  0
M  END
>  <CHROM.1>  (1) 
-134.36832605,160.73756414,164.26439843,-133.25412954,1.19080411,-0.19629372
0.97104121,1.80225393

>  <Name>  (1) 
CCn1cc(NC(=O)[C@@H]2CC[C@H]2C(=O)O)cn1

>  <RI>  (1) 
1.01576e+07

>  <Rbt.Current_Directory>  (1) 
/data/out

>  <Rbt.Executable>  (1) 
rbdock ($Id: //depot/dev/client3/rdock/2013.1/src/exe/rbdock.cxx#4 $)

>  <Rbt.Library>  (1) 
libRbt.so (2013.1, Build901 2013/11/27)

>  <Rbt.Parameter_File>  (1) 
/python_libraries/phenodiscovery/docking/templates/RDOCK_TETHER.conf

>  <Rbt.Receptor>  (1) 
/data/out/rdock-opt/grid/rdock-grid.prm

>  <SCORE>  (1) 
-26.833

>  <SCORE.INTER>  (1) 
-12.8806

>  <SCORE.INTER.CONST>  (1) 
1

>  <SCORE.INTER.POLAR>  (1) 
-1.64577

>  <SCORE.INTER.REPUL>  (1) 
0

>  <SCORE.INTER.ROT>  (1) 
4

>  <SCORE.INTER.VDW>  (1) 
-16.685

>  <SCORE.INTER.norm>  (1) 
-0.75768

>  <SCORE.INTRA>  (1) 
-14.0984

>  <SCORE.INTRA.DIHEDRAL>  (1) 
-33.179

>  <SCORE.INTRA.DIHEDRAL.0>  (1) 
40.7589

>  <SCORE.INTRA.POLAR>  (1) 
0

>  <SCORE.INTRA.POLAR.0>  (1) 
0

>  <SCORE.INTRA.REPUL>  (1) 
0

>  <SCORE.INTRA.REPUL.0>  (1) 
0

>  <SCORE.INTRA.VDW>  (1) 
2.49107

>  <SCORE.INTRA.VDW.0>  (1) 
-3.43814

>  <SCORE.INTRA.norm>  (1) 
-0.829319

>  <SCORE.RESTR>  (1) 
0.145972

>  <SCORE.RESTR.CAVITY>  (1) 
0.145972

>  <SCORE.RESTR.norm>  (1) 
0.00858657

>  <SCORE.SYSTEM>  (1) 
0

>  <SCORE.SYSTEM.CONST>  (1) 
0

>  <SCORE.SYSTEM.DIHEDRAL>  (1) 
0

>  <SCORE.SYSTEM.norm>  (1) 
0

>  <SCORE.heavy>  (1) 
17

>  <SCORE.norm>  (1) 
-1.57841

>  <TETHERED ATOMS>  (1) 
8,7,6,5,9,11,12,10,2,17,16,1,3,4

>  <skeledock_score>  (1) 
105

$$$$
