CNC(=O)NCC(=O)Nc1ccc(Cc2ccncc2)cc1
     RDKit          3D

 40 41  0  0  0  0  0  0  0  0999 V2000
  -10.5682   20.5677   27.8743 C   0  0  0  0  0  0  0  0  0  0  0  0
  -11.5122   19.5937   27.3347 N   0  0  0  0  0  0  0  0  0  0  0  0
  -12.9353   19.7673   27.3774 C   0  0  0  0  0  0  0  0  0  0  0  0
  -13.4353   20.8038   27.8945 O   0  0  0  0  0  0  0  0  0  0  0  0
  -13.7907   18.7556   26.8278 N   0  0  0  0  0  0  0  0  0  0  0  0
  -15.2472   18.8682   26.8416 C   0  0  0  0  0  0  0  0  0  0  0  0
  -15.8714   17.5095   26.9516 C   0  0  0  0  0  0  0  0  0  0  0  0
  -15.5682   16.7736   27.9297 O   0  0  0  0  0  0  0  0  0  0  0  0
  -16.7821   17.0481   25.9393 N   0  0  0  0  0  0  0  0  0  0  0  0
  -17.5934   15.8670   26.0616 C   0  0  0  0  0  0  0  0  0  0  0  0
  -17.9233   15.3286   27.3181 C   0  0  0  0  0  0  0  0  0  0  0  0
  -18.6723   14.1522   27.4077 C   0  0  0  0  0  0  0  0  0  0  0  0
  -19.1150   13.5036   26.2450 C   0  0  0  0  0  0  0  0  0  0  0  0
  -19.8630   12.2010   26.3366 C   0  0  0  0  0  0  0  0  0  0  0  0
  -21.3451   12.4145   26.1899 C   0  0  0  0  0  0  0  0  0  0  0  0
  -22.0418   13.2239   27.0996 C   0  0  0  0  0  0  0  0  0  0  0  0
  -23.4105   13.4386   26.9213 C   0  0  0  0  0  0  0  0  0  0  0  0
  -24.0607   12.8657   25.8738 N   0  0  0  0  0  0  0  0  0  0  0  0
  -23.4117   12.0731   24.9801 C   0  0  0  0  0  0  0  0  0  0  0  0
  -22.0431   11.8309   25.1219 C   0  0  0  0  0  0  0  0  0  0  0  0
  -18.8516   14.0814   24.9938 C   0  0  0  0  0  0  0  0  0  0  0  0
  -18.0981   15.2554   24.9040 C   0  0  0  0  0  0  0  0  0  0  0  0
  -11.0873   21.4451   28.3131 H   0  0  0  0  0  0  0  0  0  0  0  0
   -9.9545   20.0863   28.6639 H   0  0  0  0  0  0  0  0  0  0  0  0
   -9.8989   20.9200   27.0622 H   0  0  0  0  0  0  0  0  0  0  0  0
  -11.1231   18.7275   26.8992 H   0  0  0  0  0  0  0  0  0  0  0  0
  -13.3589   17.9243   26.3648 H   0  0  0  0  0  0  0  0  0  0  0  0
  -15.5922   19.3449   25.8989 H   0  0  0  0  0  0  0  0  0  0  0  0
  -15.5601   19.5206   27.6848 H   0  0  0  0  0  0  0  0  0  0  0  0
  -16.7960   17.5571   25.0265 H   0  0  0  0  0  0  0  0  0  0  0  0
  -17.6106   15.8164   28.2312 H   0  0  0  0  0  0  0  0  0  0  0  0
  -18.8946   13.7394   28.3839 H   0  0  0  0  0  0  0  0  0  0  0  0
  -19.6559   11.6985   27.3069 H   0  0  0  0  0  0  0  0  0  0  0  0
  -19.4897   11.5102   25.5486 H   0  0  0  0  0  0  0  0  0  0  0  0
  -21.5317   13.6874   27.9348 H   0  0  0  0  0  0  0  0  0  0  0  0
  -23.9562   14.0634   27.6157 H   0  0  0  0  0  0  0  0  0  0  0  0
  -23.9578   11.6319   24.1570 H   0  0  0  0  0  0  0  0  0  0  0  0
  -21.5310   11.2056   24.4014 H   0  0  0  0  0  0  0  0  0  0  0  0
  -19.2085   13.6087   24.0869 H   0  0  0  0  0  0  0  0  0  0  0  0
  -17.8808   15.6732   23.9289 H   0  0  0  0  0  0  0  0  0  0  0  0
  1  2  1  0
  2  3  1  0
  3  4  2  0
  3  5  1  0
  5  6  1  0
  6  7  1  0
  7  8  2  0
  7  9  1  0
  9 10  1  0
 10 11  2  0
 11 12  1  0
 12 13  2  0
 13 14  1  0
 14 15  1  0
 15 16  2  0
 16 17  1  0
 17 18  2  0
 18 19  1  0
 19 20  2  0
 13 21  1  0
 21 22  2  0
 22 10  1  0
 20 15  1  0
  1 23  1  0
  1 24  1  0
  1 25  1  0
  2 26  1  0
  5 27  1  0
  6 28  1  0
  6 29  1  0
  9 30  1  0
 11 31  1  0
 12 32  1  0
 14 33  1  0
 14 34  1  0
 16 35  1  0
 17 36  1  0
 19 37  1  0
 20 38  1  0
 21 39  1  0
 22 40  1  0
M  END
>  <CHROM.1>  (1) 
-148.31790735,57.10274038,22.71390614,100.26676334,-60.43872778,-2.77707091
0.45938684,1.07992125

>  <Name>  (1) 
CNC(=O)NCC(=O)Nc1ccc(Cc2ccncc2)cc1

>  <RI>  (1) 
1.67524e+07

>  <Rbt.Current_Directory>  (1) 
/data/out

>  <Rbt.Executable>  (1) 
rbdock ($Id: //depot/dev/client3/rdock/2013.1/src/exe/rbdock.cxx#4 $)

>  <Rbt.Library>  (1) 
libRbt.so (2013.1, Build901 2013/11/27)

>  <Rbt.Parameter_File>  (1) 
/python_libraries/phenodiscovery/docking/templates/RDOCK_TETHER.conf

>  <Rbt.Receptor>  (1) 
/data/out/rdock-opt/grid/rdock-grid.prm

>  <SCORE>  (1) 
-18.6675

>  <SCORE.INTER>  (1) 
-19.9626

>  <SCORE.INTER.CONST>  (1) 
1

>  <SCORE.INTER.POLAR>  (1) 
-2.69974

>  <SCORE.INTER.REPUL>  (1) 
1

>  <SCORE.INTER.ROT>  (1) 
5

>  <SCORE.INTER.VDW>  (1) 
-26.1835

>  <SCORE.INTER.norm>  (1) 
-0.907391

>  <SCORE.INTRA>  (1) 
1.29513

>  <SCORE.INTRA.DIHEDRAL>  (1) 
-1.82795

>  <SCORE.INTRA.DIHEDRAL.0>  (1) 
7.13551

>  <SCORE.INTRA.POLAR>  (1) 
0

>  <SCORE.INTRA.POLAR.0>  (1) 
0

>  <SCORE.INTRA.REPUL>  (1) 
0

>  <SCORE.INTRA.REPUL.0>  (1) 
0

>  <SCORE.INTRA.VDW>  (1) 
2.20911

>  <SCORE.INTRA.VDW.0>  (1) 
-2.05269

>  <SCORE.INTRA.norm>  (1) 
0.0588698

>  <SCORE.RESTR>  (1) 
0

>  <SCORE.RESTR.CAVITY>  (1) 
0

>  <SCORE.RESTR.norm>  (1) 
0

>  <SCORE.SYSTEM>  (1) 
0

>  <SCORE.SYSTEM.CONST>  (1) 
0

>  <SCORE.SYSTEM.DIHEDRAL>  (1) 
0

>  <SCORE.SYSTEM.norm>  (1) 
0

>  <SCORE.heavy>  (1) 
22

>  <SCORE.norm>  (1) 
-0.848521

>  <TETHERED ATOMS>  (1) 
14,10,18,7,9,15,13,8,12,22,21,11,19,17,16,20

>  <skeledock_score>  (1) 
121

$$$$
