Cc1nc2ccccc2n1CCC(=O)NCC(C)O
     RDKit          3D

 38 39  0  0  0  0  0  0  0  0999 V2000
  -18.2423   12.8951   23.4970 C   0  0  0  0  0  0  0  0  0  0  0  0
  -19.3045   12.7150   24.5356 C   0  0  0  0  0  0  0  0  0  0  0  0
  -20.4140   11.9613   24.3204 N   0  0  0  0  0  0  0  0  0  0  0  0
  -21.0923   12.0843   25.4757 C   0  0  0  0  0  0  0  0  0  0  0  0
  -22.3213   11.5147   25.7989 C   0  0  0  0  0  0  0  0  0  0  0  0
  -22.8587   11.7947   27.0687 C   0  0  0  0  0  0  0  0  0  0  0  0
  -22.1623   12.6292   27.9726 C   0  0  0  0  0  0  0  0  0  0  0  0
  -20.9205   13.1892   27.6161 C   0  0  0  0  0  0  0  0  0  0  0  0
  -20.4146   12.8861   26.3497 C   0  0  0  0  0  0  0  0  0  0  0  0
  -19.2682   13.2846   25.7707 N   0  0  0  0  0  0  0  0  0  0  0  0
  -18.2386   14.1758   26.3103 C   0  0  0  0  0  0  0  0  0  0  0  0
  -18.6442   15.6420   26.1237 C   0  0  0  0  0  0  0  0  0  0  0  0
  -17.5302   16.5569   26.5402 C   0  0  0  0  0  0  0  0  0  0  0  0
  -17.4893   16.9878   27.7248 O   0  0  0  0  0  0  0  0  0  0  0  0
  -16.5235   16.9434   25.5948 N   0  0  0  0  0  0  0  0  0  0  0  0
  -15.4936   17.9341   25.9022 C   0  0  0  0  0  0  0  0  0  0  0  0
  -15.2199   18.8302   24.6812 C   0  0  0  0  0  0  0  0  0  0  0  0
  -14.2391   19.9543   25.0291 C   0  0  0  0  0  0  0  0  0  0  0  0
  -14.7344   18.0719   23.6014 O   0  0  0  0  0  0  0  0  0  0  0  0
  -17.2787   12.4927   23.8725 H   0  0  0  0  0  0  0  0  0  0  0  0
  -18.5172   12.3519   22.5684 H   0  0  0  0  0  0  0  0  0  0  0  0
  -18.1261   13.9725   23.2594 H   0  0  0  0  0  0  0  0  0  0  0  0
  -22.8479   10.8816   25.0965 H   0  0  0  0  0  0  0  0  0  0  0  0
  -23.8126   11.3705   27.3540 H   0  0  0  0  0  0  0  0  0  0  0  0
  -22.5870   12.8403   28.9454 H   0  0  0  0  0  0  0  0  0  0  0  0
  -20.3862   13.8321   28.3027 H   0  0  0  0  0  0  0  0  0  0  0  0
  -18.0755   13.9605   27.3879 H   0  0  0  0  0  0  0  0  0  0  0  0
  -17.2741   13.9769   25.7938 H   0  0  0  0  0  0  0  0  0  0  0  0
  -18.8946   15.8302   25.0568 H   0  0  0  0  0  0  0  0  0  0  0  0
  -19.5486   15.8591   26.7313 H   0  0  0  0  0  0  0  0  0  0  0  0
  -16.4985   16.4749   24.6611 H   0  0  0  0  0  0  0  0  0  0  0  0
  -15.8154   18.5501   26.7702 H   0  0  0  0  0  0  0  0  0  0  0  0
  -14.5581   17.4072   26.1926 H   0  0  0  0  0  0  0  0  0  0  0  0
  -16.1744   19.3033   24.3654 H   0  0  0  0  0  0  0  0  0  0  0  0
  -13.2679   19.5357   25.3695 H   0  0  0  0  0  0  0  0  0  0  0  0
  -14.6591   20.5930   25.8352 H   0  0  0  0  0  0  0  0  0  0  0  0
  -14.0614   20.5880   24.1344 H   0  0  0  0  0  0  0  0  0  0  0  0
  -13.9800   17.5198   23.9370 H   0  0  0  0  0  0  0  0  0  0  0  0
  1  2  1  0
  2  3  2  0
  3  4  1  0
  4  5  2  0
  5  6  1  0
  6  7  2  0
  7  8  1  0
  8  9  2  0
  9 10  1  0
 10 11  1  0
 11 12  1  0
 12 13  1  0
 13 14  2  0
 13 15  1  0
 15 16  1  0
 16 17  1  0
 17 18  1  0
 17 19  1  0
 10  2  1  0
  9  4  1  0
  1 20  1  0
  1 21  1  0
  1 22  1  0
  5 23  1  0
  6 24  1  0
  7 25  1  0
  8 26  1  0
 11 27  1  0
 11 28  1  0
 12 29  1  0
 12 30  1  0
 15 31  1  0
 16 32  1  0
 16 33  1  0
 17 34  1  0
 18 35  1  0
 18 36  1  0
 18 37  1  0
 19 38  1  0
M  END
>  <CHROM.1>  (1) 
95.35237553,-173.93496853,-92.09584354,-141.22004341,174.69276037,-50.65505894
-2.65587790,0.65916430,0.91108582

>  <Name>  (1) 
Cc1nc2ccccc2n1CCC(=O)NCC(C)O

>  <RI>  (1) 
3.93853e+07

>  <Rbt.Current_Directory>  (1) 
/data/out

>  <Rbt.Executable>  (1) 
rbdock ($Id: //depot/dev/client3/rdock/2013.1/src/exe/rbdock.cxx#4 $)

>  <Rbt.Library>  (1) 
libRbt.so (2013.1, Build901 2013/11/27)

>  <Rbt.Parameter_File>  (1) 
/python_libraries/phenodiscovery/docking/templates/RDOCK_TETHER.conf

>  <Rbt.Receptor>  (1) 
/data/out/rdock-opt/grid/rdock-grid.prm

>  <SCORE>  (1) 
-16.301

>  <SCORE.INTER>  (1) 
-16.8787

>  <SCORE.INTER.CONST>  (1) 
1

>  <SCORE.INTER.POLAR>  (1) 
-2.07035

>  <SCORE.INTER.REPUL>  (1) 
0.251803

>  <SCORE.INTER.ROT>  (1) 
5

>  <SCORE.INTER.VDW>  (1) 
-21.4986

>  <SCORE.INTER.norm>  (1) 
-0.888354

>  <SCORE.INTRA>  (1) 
0.577697

>  <SCORE.INTRA.DIHEDRAL>  (1) 
0.241026

>  <SCORE.INTRA.DIHEDRAL.0>  (1) 
6.0968

>  <SCORE.INTRA.POLAR>  (1) 
0

>  <SCORE.INTRA.POLAR.0>  (1) 
0

>  <SCORE.INTRA.REPUL>  (1) 
0

>  <SCORE.INTRA.REPUL.0>  (1) 
0

>  <SCORE.INTRA.VDW>  (1) 
0.457184

>  <SCORE.INTRA.VDW.0>  (1) 
-2.22647

>  <SCORE.INTRA.norm>  (1) 
0.0304051

>  <SCORE.RESTR>  (1) 
0

>  <SCORE.RESTR.CAVITY>  (1) 
0

>  <SCORE.RESTR.norm>  (1) 
0

>  <SCORE.SYSTEM>  (1) 
0

>  <SCORE.SYSTEM.CONST>  (1) 
0

>  <SCORE.SYSTEM.DIHEDRAL>  (1) 
0

>  <SCORE.SYSTEM.norm>  (1) 
0

>  <SCORE.heavy>  (1) 
19

>  <SCORE.norm>  (1) 
-0.857949

>  <TETHERED ATOMS>  (1) 
10,13,11,14,15,12,9,6,5,2,4,7,1,3,8

>  <skeledock_score>  (1) 
115

$$$$
