#       Name:                F666-F2164A8C471FF04D-F2164A8C471FF04D-NMX
#       Creating user name   iorga
#       Creation time:       Wed Nov 27 14:05:21 2019


#       File generated by GOLD software.
#

@<TRIPOS>MOLECULE
F666-F2164A8C471FF04D-F2164A8C471FF04D-NMX|ligands_smiles_3D-hash|mol2|683|dock10
    38    40     1
SMALL
NO_CHARGES


@<TRIPOS>ATOM
      1 F1         -20.6195  13.1864  23.9661 F              1 <1>                0.0000
      2 C2         -19.7858  13.2766  25.0292 C.ar           1 <1>                0.0000
      3 C3         -18.9460  14.3976  25.1732 C.ar           1 <1>                0.0000
      4 C4         -18.0782  14.4915  26.2787 C.ar           1 <1>                0.0000
      5 C5         -18.0467  13.4624  27.2477 C.ar           1 <1>                0.0000
      6 C6         -18.8891  12.3412  27.0962 C.ar           1 <1>                0.0000
      7 C7         -19.7572  12.2487  25.9908 C.ar           1 <1>                0.0000
      8 N8         -17.1881  13.5224  28.3536 N.3            1 <1>                0.0000
      9 C9         -17.2480  12.3493  29.2229 C.3            1 <1>                0.0000
     10 C10        -17.2396  12.8291  30.5641 C.3            1 <1>                0.0000
     11 N11        -18.3514  13.7213  30.9287 N.am           1 <1>                0.0000
     12 C12        -18.4228  14.8702  30.0148 C.3            1 <1>                0.0000
     13 C13        -17.2281  14.8115  29.0430 C.3            1 <1>                0.0000
     14 C14        -19.1788  13.5770  31.9931 C.2            1 <1>                0.0000
     15 O15        -19.0453  12.6637  32.8089 O.2            1 <1>                0.0000
     16 C16        -20.2943  14.5677  32.1293 C.3            1 <1>                0.0000
     17 C17        -20.2451  15.4961  33.3248 C.3            1 <1>                0.0000
     18 C18        -21.2734  14.3970  33.2772 C.3            1 <1>                0.0000
     19 H19        -18.9659  15.1848  24.4341 H              1 <1>                0.0000
     20 H20        -17.4355  15.3543  26.3759 H              1 <1>                0.0000
     21 H21        -18.8722  11.5477  27.8291 H              1 <1>                0.0000
     22 H22        -20.4006  11.3881  25.8806 H              1 <1>                0.0000
     23 H23        -16.3648  11.7289  29.0639 H              1 <1>                0.0000
     24 H24        -18.1176  11.7444  28.9628 H              1 <1>                0.0000
     25 H25        -16.2521  13.2598  30.7220 H              1 <1>                0.0000
     26 H26        -17.2723  11.9476  31.2066 H              1 <1>                0.0000
     27 H27        -19.3610  14.8296  29.4595 H              1 <1>                0.0000
     28 H28        -18.4246  15.8298  30.5327 H              1 <1>                0.0000
     29 H29        -16.2997  14.9670  29.5936 H              1 <1>                0.0000
     30 H30        -17.3050  15.6155  28.3100 H              1 <1>                0.0000
     31 H31        -20.7170  14.9532  31.2033 H              1 <1>                0.0000
     32 H32        -19.4236  15.3822  34.0300 H              1 <1>                0.0000
     33 H33        -20.5788  16.5196  33.1676 H              1 <1>                0.0000
     34 H34        -22.3081  14.6756  33.0887 H              1 <1>                0.0000
     35 H35        -21.1421  13.5683  33.9704 H              1 <1>                0.0000
     36 ****       -16.2629  13.4738  27.9772 LP             1 <1>                0.0000
     37 ****       -18.3076  11.9978  32.6977 LP             1 <1>                0.0000
     38 ****       -19.6746  12.5882  33.5824 LP             1 <1>                0.0000
@<TRIPOS>BOND
    1    1    2 1     
    2    2    7 ar    
    3    2    3 ar    
    4    3    4 ar    
    5    3   19 1     
    6    4    5 ar    
    7    4   20 1     
    8    5    6 ar    
    9    5    8 1     
   10    6    7 ar    
   11    6   21 1     
   12    7   22 1     
   13   13    8 1     
   14    8    9 1     
   15    9   10 1     
   16    9   23 1     
   17    9   24 1     
   18   10   11 1     
   19   10   25 1     
   20   10   26 1     
   21   11   12 1     
   22   11   14 am    
   23   12   13 1     
   24   12   27 1     
   25   12   28 1     
   26   13   29 1     
   27   13   30 1     
   28   14   15 2     
   29   14   16 1     
   30   16   18 1     
   31   16   17 1     
   32   16   31 1     
   33   17   18 1     
   34   17   32 1     
   35   17   33 1     
   36   18   34 1     
   37   18   35 1     
   38    8   36 1     
   39   15   37 1     
   40   15   38 1     
@<TRIPOS>SUBSTRUCTURE
      1 ****           1
@<TRIPOS>SET
LONE_PAIRS      STATIC     ATOMS    <user>   **** ""
3 36 37 38
ATOM$BLUE        STATIC     ATOMS    COLORGROUP SYSTEM
3 36 37 38
@<TRIPOS>COMMENT
> <Gold.Version>
5.7.1

> <Gold.Id.Protein>
5ENC|5ENC_protein|mol2

> <Gold.Protein.RotatedTorsions>
[ 1501  701  700  697 ] final -123.06 input   60.00 | X-H torsion
[ 1497  695  694  692 ] final  159.17 input   60.00 | X-H torsion
[ 1251  358  357  355 ] final   -1.76 input   60.00 | X-H torsion
[ 1470  669  668  665 ] final  -98.44 input   60.00 | X-H torsion

> <Gold.Protein.ActiveResidues>
 PRO28   PHE29   GLN31   PRO32   VAL33   TYR38   TYR41   PRO48   MET49   ASP50  
 ILE76   ASN79   SER80   TYR83   THR84   ILE91  

> <Gold.Protein.RotatedAtoms>
  -16.3700    9.5497   24.7102 H   0  0  0  0  0  0  0  0  0  0  0  0  # atno 1251 bound_to 358 
  -22.5929   10.7916   21.4185 H   0  0  0  0  0  0  0  0  0  0  0  0  # atno 1470 bound_to 669 
  -19.1350   10.8038   32.1915 H   0  0  0  0  0  0  0  0  0  0  0  0  # atno 1497 bound_to 695 
  -23.3290   11.5287   26.8546 H   0  0  0  0  0  0  0  0  0  0  0  0  # atno 1501 bound_to 701 
  -22.2348   10.9907   25.7770 LP  0  0  0  0  0  0  0  0  0  0  0  0  # atno 2046 bound_to 701 
  -22.6863   10.0439   27.0285 LP  0  0  0  0  0  0  0  0  0  0  0  0  # atno 2047 bound_to 701 
  -18.2038    9.5007   32.4790 LP  0  0  0  0  0  0  0  0  0  0  0  0  # atno 2052 bound_to 695 
  -19.8186    9.4204   32.7082 LP  0  0  0  0  0  0  0  0  0  0  0  0  # atno 2053 bound_to 695 
  -15.1278    8.5335   24.4415 LP  0  0  0  0  0  0  0  0  0  0  0  0  # atno 2056 bound_to 358 
  -14.8829   10.1480   24.4297 LP  0  0  0  0  0  0  0  0  0  0  0  0  # atno 2057 bound_to 358 

> <Gold.Protein.RotatedWaterAtoms>
  -17.7040   10.2320   24.0390 O.3 0  0  0  0  0  0  0  0  0  0  0  0  # atno 1    bound_to 2    3    AM1 ON 
  -18.6536   10.0327   24.2502 H   0  0  0  0  0  0  0  0  0  0  0  0  # atno 2    bound_to 1    AM1 ON 
  -17.6552   10.7560   23.1968 H   0  0  0  0  0  0  0  0  0  0  0  0  # atno 3    bound_to 1    AM1 ON 
  -17.2002    9.3753   23.9283 LP  0  0  0  0  0  0  0  0  0  0  0  0  # atno 4    bound_to 1    AM1 ON 
  -17.3007   10.7618   24.7851 LP  0  0  0  0  0  0  0  0  0  0  0  0  # atno 5    bound_to 1    AM1 ON 
  -13.7450   10.2720   23.0540 O.3 0  0  0  0  0  0  0  0  0  0  0  0  # atno 1    bound_to 2    3    AM2 ON 
  -14.2036    9.6990   23.7229 H   0  0  0  0  0  0  0  0  0  0  0  0  # atno 2    bound_to 1    AM2 ON 
  -14.1714   11.1688   23.0386 H   0  0  0  0  0  0  0  0  0  0  0  0  # atno 3    bound_to 1    AM2 ON 
  -13.8184    9.8524   22.1493 LP  0  0  0  0  0  0  0  0  0  0  0  0  # atno 4    bound_to 1    AM2 ON 
  -12.7804   10.3657   23.3007 LP  0  0  0  0  0  0  0  0  0  0  0  0  # atno 5    bound_to 1    AM2 ON 
  -21.1690   11.6250   24.3940 O.3 0  0  0  0  0  0  0  0  0  0  0  0  # atno 1    bound_to 2    3    AM3 OFF
  -21.2975   12.4913   23.9259 H   0  0  0  0  0  0  0  0  0  0  0  0  # atno 2    bound_to 1    AM3 OFF
  -20.3278   11.2006   24.0799 H   0  0  0  0  0  0  0  0  0  0  0  0  # atno 3    bound_to 1    AM3 OFF
  -21.9411   11.0212   24.1958 LP  0  0  0  0  0  0  0  0  0  0  0  0  # atno 4    bound_to 1    AM3 OFF
  -21.1144   11.7837   25.3798 LP  0  0  0  0  0  0  0  0  0  0  0  0  # atno 5    bound_to 1    AM3 OFF
  -14.6550   15.1580   23.4130 O.3 0  0  0  0  0  0  0  0  0  0  0  0  # atno 1    bound_to 2    3    AM4 ON 
  -15.3481   15.8586   23.5349 H   0  0  0  0  0  0  0  0  0  0  0  0  # atno 2    bound_to 1    AM4 ON 
  -13.7560   15.5518   23.5649 H   0  0  0  0  0  0  0  0  0  0  0  0  # atno 3    bound_to 1    AM4 ON 
  -14.7073   14.7956   22.4824 LP  0  0  0  0  0  0  0  0  0  0  0  0  # atno 4    bound_to 1    AM4 ON 
  -14.8099   14.4183   24.0679 LP  0  0  0  0  0  0  0  0  0  0  0  0  # atno 5    bound_to 1    AM4 ON 
  -23.6820   12.7820   28.0340 O.3 0  0  0  0  0  0  0  0  0  0  0  0  # atno 1    bound_to 2    3    AM5 ON 
  -23.4178   13.7366   27.9629 H   0  0  0  0  0  0  0  0  0  0  0  0  # atno 2    bound_to 1    AM5 ON 
  -24.2237   12.6488   28.8557 H   0  0  0  0  0  0  0  0  0  0  0  0  # atno 3    bound_to 1    AM5 ON 
  -22.8619   12.2116   28.0793 LP  0  0  0  0  0  0  0  0  0  0  0  0  # atno 4    bound_to 1    AM5 ON 
  -24.2228   12.5252   27.2330 LP  0  0  0  0  0  0  0  0  0  0  0  0  # atno 5    bound_to 1    AM5 ON 
  -16.9520   11.2350   21.5950 O.3 0  0  0  0  0  0  0  0  0  0  0  0  # atno 1    bound_to 2    3    AM6 ON 
  -17.1791   10.8186   20.7226 H   0  0  0  0  0  0  0  0  0  0  0  0  # atno 2    bound_to 1    AM6 ON 
  -16.2703   11.9438   21.4560 H   0  0  0  0  0  0  0  0  0  0  0  0  # atno 3    bound_to 1    AM6 ON 
  -16.5870   10.5379   22.2121 LP  0  0  0  0  0  0  0  0  0  0  0  0  # atno 4    bound_to 1    AM6 ON 
  -17.7746   11.6378   21.9964 LP  0  0  0  0  0  0  0  0  0  0  0  0  # atno 5    bound_to 1    AM6 ON 
  -14.9200   12.9840   21.7870 O.3 0  0  0  0  0  0  0  0  0  0  0  0  # atno 1    bound_to 2    3    AM7 ON 
  -14.9458   13.6518   22.5214 H   0  0  0  0  0  0  0  0  0  0  0  0  # atno 2    bound_to 1    AM7 ON 
  -13.9828   12.6905   21.6393 H   0  0  0  0  0  0  0  0  0  0  0  0  # atno 3    bound_to 1    AM7 ON 
  -15.2762   13.3966   20.9486 LP  0  0  0  0  0  0  0  0  0  0  0  0  # atno 4    bound_to 1    AM7 ON 
  -15.4815   12.1944   22.0346 LP  0  0  0  0  0  0  0  0  0  0  0  0  # atno 5    bound_to 1    AM7 ON 

> <Gold.Score>
     Score         DG    S(hbond)    S(metal)    S(lipo)     H(rot)  DE(clash)    DE(int)    S(bar)      intcor
     46.56     -48.40      11.61        0.00     162.13       1.11       0.40       1.44      12.00       0.57

> <Gold.Chemscore.Fitness>
46.5552

> <Gold.Chemscore.DG>
-48.3979

> <Gold.Chemscore.ZeroCoef>
-5.4800

> <Gold.Chemscore.Hbond>
11.6144

> <Gold.Chemscore.Metal>
0.0000

> <Gold.Chemscore.Lipo>
162.1296

> <Gold.Chemscore.Internal_Hbond>
0.0000

> <Gold.Chemscore.DEClash>
0.4007

> <Gold.Chemscore.DEInternal>
1.4419

> <Gold.Chemscore.Rot>
1.1107

> <Gold.Chemscore.Internal.Correction>
0.5726

> <Gold.Chemscore.SBar>
12.0000

> <Gold.Chemscore.Hbonds>
donor molecule, donor type, donor heavy atom, donor atom, acceptor molecule, acceptor atom, score
     AM1  H     1     3      AM6     1  0.98
     AM2  H     1     2       P1   358  0.94
     AM4  H     1     2       P1   238  1.00
     AM4  H     1     3       P1   267  1.00
     AM6  H     1     2       P1   634  1.00
     AM6  H     1     3      AM7     1  0.97
     AM7  H     1     2      AM4     1  0.98
     AM7  H     1     3       P1   419  0.97
      P1  H   701  1501      AM5     1  0.99
      P1  H   695  1497       L1    15  0.97
      P1  H   358  1251      AM1     1  0.95
      P1  H   416  1258      AM2     1  0.87

> <Gold.Chemscore.Hbond.Weighted>
-38.7921

> <Gold.Chemscore.Metal.Weighted>
-0.0000

> <Gold.Chemscore.Lipo.Weighted>
-18.9692

> <Gold.Chemscore.Internal_Hbond.Weighted>
0.0000

> <Gold.Chemscore.DEClash.Weighted>
0.4007

> <Gold.Chemscore.DEInternal.Weighted>
1.4419

> <Gold.Chemscore.Rot.Weighted>
2.8434

> <Gold.Chemscore.Internal.Correction.Weighted>
0.5726

