#       Name:                F389-327B4D9802B2C0B4-327B4D9802B2C0B4-NMX
#       Creating user name   iorga
#       Creation time:       Wed Nov 27 18:15:09 2019


#       File generated by GOLD software.
#

@<TRIPOS>MOLECULE
F389-327B4D9802B2C0B4-327B4D9802B2C0B4-NMX|ligands_smiles_3D-hash|mol2|401|dock29
    21    21     1
SMALL
NO_CHARGES


@<TRIPOS>ATOM
      1 C1         -17.6594  13.2715  31.2317 C.3            1 <1>                0.0000
      2 C2         -17.4249  14.3849  30.2075 C.3            1 <1>                0.0000
      3 O3         -18.0535  14.0375  28.9842 O.3            1 <1>                0.0000
      4 C4         -18.1082  14.9335  27.9804 C.2            1 <1>                0.0000
      5 O5         -17.9926  16.1513  28.1250 O.2            1 <1>                0.0000
      6 C6         -18.3251  14.2864  26.6678 C.2            1 <1>                0.0000
      7 C7         -18.7485  12.9463  26.4460 C.2            1 <1>                0.0000
      8 N8         -18.8471  12.6753  25.1519 N.2            1 <1>                0.0000
      9 N9         -18.4909  13.8287  24.5435 N.pl3          1 <1>                0.0000
     10 C10        -18.1658  14.8341  25.4273 C.2            1 <1>                0.0000
     11 H11        -17.1857  13.5134  32.1832 H              1 <1>                0.0000
     12 H12        -18.7242  13.1259  31.4157 H              1 <1>                0.0000
     13 H13        -17.2456  12.3248  30.8833 H              1 <1>                0.0000
     14 H14        -16.3553  14.5268  30.0469 H              1 <1>                0.0000
     15 H15        -17.8315  15.3266  30.5784 H              1 <1>                0.0000
     16 H16        -18.9829  12.1770  27.1672 H              1 <1>                0.0000
     17 H17        -18.4749  13.9125  23.5369 H              1 <1>                0.0000
     18 H18        -17.8597  15.8185  25.1049 H              1 <1>                0.0000
     19 ****       -17.8472  16.5350  29.0370 LP             1 <1>                0.0000
     20 ****       -18.0442  16.7563  27.3305 LP             1 <1>                0.0000
     21 ****       -19.1220  11.8144  24.7237 LP             1 <1>                0.0000
@<TRIPOS>BOND
    1    1    2 1     
    2    1   11 1     
    3    1   12 1     
    4    1   13 1     
    5    2    3 1     
    6    2   14 1     
    7    2   15 1     
    8    3    4 1     
    9    4    5 2     
   10    4    6 1     
   11    6   10 2     
   12    6    7 1     
   13    7    8 2     
   14    7   16 1     
   15    8    9 1     
   16    9   10 1     
   17    9   17 1     
   18   10   18 1     
   19    5   19 1     
   20    5   20 1     
   21    8   21 1     
@<TRIPOS>SUBSTRUCTURE
      1 ****           1
@<TRIPOS>SET
LONE_PAIRS      STATIC     ATOMS    <user>   **** ""
3 19 20 21
DONOR_HYDROGENS      STATIC     ATOMS    <user>   **** ""
1 17
ATOM$BLUE        STATIC     ATOMS    COLORGROUP SYSTEM
3 19 20 21
ATOM$RED        STATIC     ATOMS    COLORGROUP SYSTEM
1 17
@<TRIPOS>COMMENT
> <Gold.Version>
5.7.1

> <Gold.Id.Protein>
5ENC|5ENC_protein|mol2

> <Gold.Protein.RotatedTorsions>
[ 1501  701  700  697 ] final -101.26 input   60.00 | X-H torsion
[ 1497  695  694  692 ] final  177.21 input   60.00 | X-H torsion
[ 1251  358  357  355 ] final   -6.84 input   60.00 | X-H torsion
[ 1470  669  668  665 ] final   37.37 input   60.00 | X-H torsion

> <Gold.Protein.ActiveResidues>
 PRO28   PHE29   GLN31   PRO32   VAL33   TYR38   TYR41   PRO48   MET49   ASP50  
 ILE76   ASN79   SER80   TYR83   THR84   ILE91  

> <Gold.Protein.RotatedAtoms>
  -16.3789    9.4672   24.7101 H   0  0  0  0  0  0  0  0  0  0  0  0  # atno 1251 bound_to 358 
  -21.6823   11.0284   22.8762 H   0  0  0  0  0  0  0  0  0  0  0  0  # atno 1470 bound_to 669 
  -19.4177   10.7456   32.2453 H   0  0  0  0  0  0  0  0  0  0  0  0  # atno 1497 bound_to 695 
  -23.3839   11.2790   27.0995 H   0  0  0  0  0  0  0  0  0  0  0  0  # atno 1501 bound_to 701 
  -22.4100   11.3007   25.7960 LP  0  0  0  0  0  0  0  0  0  0  0  0  # atno 2046 bound_to 701 
  -22.4558    9.9854   26.7628 LP  0  0  0  0  0  0  0  0  0  0  0  0  # atno 2047 bound_to 701 
  -18.1233    9.7695   32.3857 LP  0  0  0  0  0  0  0  0  0  0  0  0  # atno 2052 bound_to 695 
  -19.6144    9.2103   32.7473 LP  0  0  0  0  0  0  0  0  0  0  0  0  # atno 2053 bound_to 695 
  -15.0527    8.5675   24.4275 LP  0  0  0  0  0  0  0  0  0  0  0  0  # atno 2056 bound_to 358 
  -14.9490   10.1971   24.4437 LP  0  0  0  0  0  0  0  0  0  0  0  0  # atno 2057 bound_to 358 

> <Gold.Protein.RotatedWaterAtoms>
  -17.7040   10.2320   24.0390 O.3 0  0  0  0  0  0  0  0  0  0  0  0  # atno 1    bound_to 2    3    AM1 ON 
  -17.6411   10.4783   23.0791 H   0  0  0  0  0  0  0  0  0  0  0  0  # atno 2    bound_to 1    AM1 ON 
  -18.2777   10.8899   24.5127 H   0  0  0  0  0  0  0  0  0  0  0  0  # atno 3    bound_to 1    AM1 ON 
  -16.7898   10.2341   24.4443 LP  0  0  0  0  0  0  0  0  0  0  0  0  # atno 4    bound_to 1    AM1 ON 
  -18.1039    9.3193   24.1234 LP  0  0  0  0  0  0  0  0  0  0  0  0  # atno 5    bound_to 1    AM1 ON 
  -13.7450   10.2720   23.0540 O.3 0  0  0  0  0  0  0  0  0  0  0  0  # atno 1    bound_to 2    3    AM2 ON 
  -14.3745   10.4021   23.8109 H   0  0  0  0  0  0  0  0  0  0  0  0  # atno 2    bound_to 1    AM2 ON 
  -13.5811   11.1432   22.6063 H   0  0  0  0  0  0  0  0  0  0  0  0  # atno 3    bound_to 1    AM2 ON 
  -14.1408    9.6293   22.3980 LP  0  0  0  0  0  0  0  0  0  0  0  0  # atno 4    bound_to 1    AM2 ON 
  -12.8804    9.9064   23.3986 LP  0  0  0  0  0  0  0  0  0  0  0  0  # atno 5    bound_to 1    AM2 ON 
  -21.1690   11.6250   24.3940 O.3 0  0  0  0  0  0  0  0  0  0  0  0  # atno 1    bound_to 2    3    AM3 ON 
  -21.5900   11.3791   25.2590 H   0  0  0  0  0  0  0  0  0  0  0  0  # atno 2    bound_to 1    AM3 ON 
  -20.2129   11.8487   24.5430 H   0  0  0  0  0  0  0  0  0  0  0  0  # atno 3    bound_to 1    AM3 ON 
  -21.6404   12.4176   24.0072 LP  0  0  0  0  0  0  0  0  0  0  0  0  # atno 4    bound_to 1    AM3 ON 
  -21.2363   10.8549   23.7597 LP  0  0  0  0  0  0  0  0  0  0  0  0  # atno 5    bound_to 1    AM3 ON 
  -14.6550   15.1580   23.4130 O.3 0  0  0  0  0  0  0  0  0  0  0  0  # atno 1    bound_to 2    3    AM4 ON 
  -13.7733   15.5850   23.5754 H   0  0  0  0  0  0  0  0  0  0  0  0  # atno 2    bound_to 1    AM4 ON 
  -15.3762   15.8287   23.5409 H   0  0  0  0  0  0  0  0  0  0  0  0  # atno 3    bound_to 1    AM4 ON 
  -14.7836   14.4035   24.0566 LP  0  0  0  0  0  0  0  0  0  0  0  0  # atno 4    bound_to 1    AM4 ON 
  -14.6882   14.8072   22.4771 LP  0  0  0  0  0  0  0  0  0  0  0  0  # atno 5    bound_to 1    AM4 ON 
  -23.6820   12.7820   28.0340 O.3 0  0  0  0  0  0  0  0  0  0  0  0  # atno 1    bound_to 2    3    AM5 ON 
  -23.4300   13.6854   27.7078 H   0  0  0  0  0  0  0  0  0  0  0  0  # atno 2    bound_to 1    AM5 ON 
  -23.8294   12.8138   29.0156 H   0  0  0  0  0  0  0  0  0  0  0  0  # atno 3    bound_to 1    AM5 ON 
  -22.9469   12.1361   27.8280 LP  0  0  0  0  0  0  0  0  0  0  0  0  # atno 4    bound_to 1    AM5 ON 
  -24.5225   12.4862   27.5801 LP  0  0  0  0  0  0  0  0  0  0  0  0  # atno 5    bound_to 1    AM5 ON 
  -16.9520   11.2350   21.5950 O.3 0  0  0  0  0  0  0  0  0  0  0  0  # atno 1    bound_to 2    3    AM6 ON 
  -16.8557   10.7253   20.7483 H   0  0  0  0  0  0  0  0  0  0  0  0  # atno 2    bound_to 1    AM6 ON 
  -16.3259   12.0059   21.5903 H   0  0  0  0  0  0  0  0  0  0  0  0  # atno 3    bound_to 1    AM6 ON 
  -16.7404   10.6384   22.3691 LP  0  0  0  0  0  0  0  0  0  0  0  0  # atno 4    bound_to 1    AM6 ON 
  -17.8910   11.5687   21.6783 LP  0  0  0  0  0  0  0  0  0  0  0  0  # atno 5    bound_to 1    AM6 ON 
  -14.9200   12.9840   21.7870 O.3 0  0  0  0  0  0  0  0  0  0  0  0  # atno 1    bound_to 2    3    AM7 ON 
  -14.0271   12.7682   21.4099 H   0  0  0  0  0  0  0  0  0  0  0  0  # atno 2    bound_to 1    AM7 ON 
  -14.8291   13.7104   22.4581 H   0  0  0  0  0  0  0  0  0  0  0  0  # atno 3    bound_to 1    AM7 ON 
  -15.3020   12.1706   22.2258 LP  0  0  0  0  0  0  0  0  0  0  0  0  # atno 4    bound_to 1    AM7 ON 
  -15.5287   13.2833   21.0522 LP  0  0  0  0  0  0  0  0  0  0  0  0  # atno 5    bound_to 1    AM7 ON 

> <Gold.Score>
     Score         DG    S(hbond)    S(metal)    S(lipo)     H(rot)  DE(clash)    DE(int)    S(bar)      intcor
     41.87     -42.29      13.83        0.00      67.78       1.29       0.01       0.40      14.00       0.00

> <Gold.Chemscore.Fitness>
41.8712

> <Gold.Chemscore.DG>
-42.2901

> <Gold.Chemscore.ZeroCoef>
-5.4800

> <Gold.Chemscore.Hbond>
13.8290

> <Gold.Chemscore.Metal>
0.0000

> <Gold.Chemscore.Lipo>
67.7814

> <Gold.Chemscore.Internal_Hbond>
0.0000

> <Gold.Chemscore.DEClash>
0.0149

> <Gold.Chemscore.DEInternal>
0.4040

> <Gold.Chemscore.Rot>
1.2926

> <Gold.Chemscore.Internal.Correction>
0.0000

> <Gold.Chemscore.SBar>
14.0000

> <Gold.Chemscore.Hbonds>
donor molecule, donor type, donor heavy atom, donor atom, acceptor molecule, acceptor atom, score
     AM1  H     1     2      AM6     1  0.98
     AM1  H     1     3       L1     8  0.95
     AM2  H     1     2       P1   358  0.69
     AM2  H     1     3       P1   419  0.55
     AM3  H     1     2       P1   701  0.76
     AM3  H     1     3       L1     8  0.93
     AM4  H     1     2       P1   267  1.00
     AM4  H     1     3       P1   238  1.00
     AM6  H     1     2       P1   634  0.97
     AM6  H     1     3      AM7     1  0.99
     AM7  H     1     2       P1   419  0.99
     AM7  H     1     3      AM4     1  0.98
      P1  H   701  1501      AM5     1  0.97
      P1  H   358  1251      AM1     1  0.89
      P1  H   669  1470      AM3     1  0.95
      P1  H   663  1465      AM2     1  0.22

> <Gold.Chemscore.Hbond.Weighted>
-46.1887

> <Gold.Chemscore.Metal.Weighted>
-0.0000

> <Gold.Chemscore.Lipo.Weighted>
-7.9304

> <Gold.Chemscore.Internal_Hbond.Weighted>
0.0000

> <Gold.Chemscore.DEClash.Weighted>
0.0149

> <Gold.Chemscore.DEInternal.Weighted>
0.4040

> <Gold.Chemscore.Rot.Weighted>
3.3091

> <Gold.Chemscore.Internal.Correction.Weighted>
0.0000

