#       Name:                F600-B7DE44439B67EBA2-B7DE44439B67EBA2-NMX
#       Creating user name   iorga
#       Creation time:       Wed Nov 27 15:10:49 2019


#       File generated by GOLD software.
#

@<TRIPOS>MOLECULE
F600-B7DE44439B67EBA2-B7DE44439B67EBA2-NMX|ligands_smiles_3D-hash|mol2|615|dock48
    20    20     1
SMALL
NO_CHARGES


@<TRIPOS>ATOM
      1 C1         -16.9325  12.6387  30.8721 C.3            1 <1>                0.0000
      2 O2         -17.3862  12.4726  29.5406 O.3            1 <1>                0.0000
      3 C3         -18.1933  13.5541  29.1079 C.3            1 <1>                0.0000
      4 C4         -18.2443  13.4880  27.6192 C.2            1 <1>                0.0000
      5 N5         -18.7782  12.4537  26.9574 N.2            1 <1>                0.0000
      6 N6         -18.7115  12.6188  25.5803 N.2            1 <1>                0.0000
      7 C7         -18.1309  13.7745  25.2458 C.2            1 <1>                0.0000
      8 N8         -17.9344  14.1893  23.9397 N.pl3          1 <1>                0.0000
      9 S9         -17.6105  14.7704  26.5945 S.3            1 <1>                0.0000
     10 H10        -16.3087  11.7909  31.1555 H              1 <1>                0.0000
     11 H11        -16.3350  13.5456  30.9745 H              1 <1>                0.0000
     12 H12        -17.7695  12.6897  31.5698 H              1 <1>                0.0000
     13 H13        -17.7712  14.5104  29.4217 H              1 <1>                0.0000
     14 H14        -19.2040  13.4754  29.5108 H              1 <1>                0.0000
     15 H15        -18.2291  13.6215  23.1582 H              1 <1>                0.0000
     16 H16        -17.4557  15.0525  23.7264 H              1 <1>                0.0000
     17 ****       -17.9219  11.6299  29.4863 LP             1 <1>                0.0000
     18 ****       -16.5922  12.4023  28.9368 LP             1 <1>                0.0000
     19 ****       -19.1792  11.6537  27.4038 LP             1 <1>                0.0000
     20 ****       -19.0565  11.9530  24.9188 LP             1 <1>                0.0000
@<TRIPOS>BOND
    1    1    2 1     
    2    1   10 1     
    3    1   11 1     
    4    1   12 1     
    5    2    3 1     
    6    3    4 1     
    7    3   13 1     
    8    3   14 1     
    9    4    9 1     
   10    4    5 2     
   11    5    6 1     
   12    6    7 2     
   13    7    8 1     
   14    7    9 1     
   15    8   15 1     
   16    8   16 1     
   17    2   17 1     
   18    2   18 1     
   19    5   19 1     
   20    6   20 1     
@<TRIPOS>SUBSTRUCTURE
      1 ****           1
@<TRIPOS>SET
LONE_PAIRS      STATIC     ATOMS    <user>   **** ""
4 17 18 19 20
DONOR_HYDROGENS      STATIC     ATOMS    <user>   **** ""
2 15 16
ATOM$BLUE        STATIC     ATOMS    COLORGROUP SYSTEM
4 17 18 19 20
ATOM$RED        STATIC     ATOMS    COLORGROUP SYSTEM
2 15 16
@<TRIPOS>COMMENT
> <Gold.Version>
5.7.1

> <Gold.Id.Protein>
5ENC|5ENC_protein|mol2

> <Gold.Protein.RotatedTorsions>
[ 1501  701  700  697 ] final -101.47 input   60.00 | X-H torsion
[ 1497  695  694  692 ] final -147.10 input   60.00 | X-H torsion
[ 1251  358  357  355 ] final   -5.10 input   60.00 | X-H torsion
[ 1470  669  668  665 ] final   50.99 input   60.00 | X-H torsion

> <Gold.Protein.ActiveResidues>
 PRO28   PHE29   GLN31   PRO32   VAL33   TYR38   TYR41   PRO48   MET49   ASP50  
 ILE76   ASN79   SER80   TYR83   THR84   ILE91  

> <Gold.Protein.RotatedAtoms>
  -16.3766    9.4956   24.7103 H   0  0  0  0  0  0  0  0  0  0  0  0  # atno 1251 bound_to 358 
  -21.5713   11.2182   22.8457 H   0  0  0  0  0  0  0  0  0  0  0  0  # atno 1470 bound_to 669 
  -19.8479   10.4017   32.4061 H   0  0  0  0  0  0  0  0  0  0  0  0  # atno 1497 bound_to 695 
  -23.3838   11.2817   27.0975 H   0  0  0  0  0  0  0  0  0  0  0  0  # atno 1501 bound_to 701 
  -22.4081   11.2980   25.7953 LP  0  0  0  0  0  0  0  0  0  0  0  0  # atno 2046 bound_to 701 
  -22.4579    9.9854   26.7655 LP  0  0  0  0  0  0  0  0  0  0  0  0  # atno 2047 bound_to 701 
  -18.2324   10.3153   32.2307 LP  0  0  0  0  0  0  0  0  0  0  0  0  # atno 2052 bound_to 695 
  -19.0721    9.0108   32.7404 LP  0  0  0  0  0  0  0  0  0  0  0  0  # atno 2053 bound_to 695 
  -15.0781    8.5551   24.4322 LP  0  0  0  0  0  0  0  0  0  0  0  0  # atno 2056 bound_to 358 
  -14.9259   10.1809   24.4388 LP  0  0  0  0  0  0  0  0  0  0  0  0  # atno 2057 bound_to 358 

> <Gold.Protein.RotatedWaterAtoms>
  -17.7040   10.2320   24.0390 O.3 0  0  0  0  0  0  0  0  0  0  0  0  # atno 1    bound_to 2    3    AM1 ON 
  -17.5415   10.5885   23.1265 H   0  0  0  0  0  0  0  0  0  0  0  0  # atno 2    bound_to 1    AM1 ON 
  -18.2627   10.8742   24.5506 H   0  0  0  0  0  0  0  0  0  0  0  0  # atno 3    bound_to 1    AM1 ON 
  -16.8298   10.1039   24.5074 LP  0  0  0  0  0  0  0  0  0  0  0  0  # atno 4    bound_to 1    AM1 ON 
  -18.1792    9.3545   23.9744 LP  0  0  0  0  0  0  0  0  0  0  0  0  # atno 5    bound_to 1    AM1 ON 
  -13.7450   10.2720   23.0540 O.3 0  0  0  0  0  0  0  0  0  0  0  0  # atno 1    bound_to 2    3    AM2 ON 
  -14.1775    9.6763   23.7204 H   0  0  0  0  0  0  0  0  0  0  0  0  # atno 2    bound_to 1    AM2 ON 
  -14.0562   11.2049   23.1928 H   0  0  0  0  0  0  0  0  0  0  0  0  # atno 3    bound_to 1    AM2 ON 
  -13.9890    9.9729   22.1315 LP  0  0  0  0  0  0  0  0  0  0  0  0  # atno 4    bound_to 1    AM2 ON 
  -12.7521   10.2317   23.1657 LP  0  0  0  0  0  0  0  0  0  0  0  0  # atno 5    bound_to 1    AM2 ON 
  -21.1690   11.6250   24.3940 O.3 0  0  0  0  0  0  0  0  0  0  0  0  # atno 1    bound_to 2    3    AM3 ON 
  -20.2979   12.0627   24.5830 H   0  0  0  0  0  0  0  0  0  0  0  0  # atno 2    bound_to 1    AM3 ON 
  -21.6286   11.4190   25.2499 H   0  0  0  0  0  0  0  0  0  0  0  0  # atno 3    bound_to 1    AM3 ON 
  -21.0130   10.7773   23.8869 LP  0  0  0  0  0  0  0  0  0  0  0  0  # atno 4    bound_to 1    AM3 ON 
  -21.7394   12.2394   23.8489 LP  0  0  0  0  0  0  0  0  0  0  0  0  # atno 5    bound_to 1    AM3 ON 
  -14.6550   15.1580   23.4130 O.3 0  0  0  0  0  0  0  0  0  0  0  0  # atno 1    bound_to 2    3    AM4 ON 
  -15.3597   15.8319   23.6009 H   0  0  0  0  0  0  0  0  0  0  0  0  # atno 2    bound_to 1    AM4 ON 
  -13.7614   15.5864   23.4788 H   0  0  0  0  0  0  0  0  0  0  0  0  # atno 3    bound_to 1    AM4 ON 
  -14.7817   14.7912   22.4914 LP  0  0  0  0  0  0  0  0  0  0  0  0  # atno 4    bound_to 1    AM4 ON 
  -14.7183   14.4149   24.0791 LP  0  0  0  0  0  0  0  0  0  0  0  0  # atno 5    bound_to 1    AM4 ON 
  -23.6820   12.7820   28.0340 O.3 0  0  0  0  0  0  0  0  0  0  0  0  # atno 1    bound_to 2    3    AM5 ON 
  -23.5647   12.9319   29.0086 H   0  0  0  0  0  0  0  0  0  0  0  0  # atno 2    bound_to 1    AM5 ON 
  -24.1388   13.5664   27.6311 H   0  0  0  0  0  0  0  0  0  0  0  0  # atno 3    bound_to 1    AM5 ON 
  -24.2354   11.9622   27.8870 LP  0  0  0  0  0  0  0  0  0  0  0  0  # atno 4    bound_to 1    AM5 ON 
  -22.7867   12.6611   27.6052 LP  0  0  0  0  0  0  0  0  0  0  0  0  # atno 5    bound_to 1    AM5 ON 
  -16.9520   11.2350   21.5950 O.3 0  0  0  0  0  0  0  0  0  0  0  0  # atno 1    bound_to 2    3    AM6 ON 
  -17.1514   10.7440   20.7553 H   0  0  0  0  0  0  0  0  0  0  0  0  # atno 2    bound_to 1    AM6 ON 
  -16.2717   11.9358   21.4150 H   0  0  0  0  0  0  0  0  0  0  0  0  # atno 3    bound_to 1    AM6 ON 
  -16.5997   10.5962   22.2790 LP  0  0  0  0  0  0  0  0  0  0  0  0  # atno 4    bound_to 1    AM6 ON 
  -17.7884   11.6626   21.9378 LP  0  0  0  0  0  0  0  0  0  0  0  0  # atno 5    bound_to 1    AM6 ON 
  -14.9200   12.9840   21.7870 O.3 0  0  0  0  0  0  0  0  0  0  0  0  # atno 1    bound_to 2    3    AM7 ON 
  -14.9817   13.5833   22.5763 H   0  0  0  0  0  0  0  0  0  0  0  0  # atno 2    bound_to 1    AM7 ON 
  -13.9839   12.6692   21.6828 H   0  0  0  0  0  0  0  0  0  0  0  0  # atno 3    bound_to 1    AM7 ON 
  -15.1969   13.4840   20.9664 LP  0  0  0  0  0  0  0  0  0  0  0  0  # atno 4    bound_to 1    AM7 ON 
  -15.5236   12.1975   21.9176 LP  0  0  0  0  0  0  0  0  0  0  0  0  # atno 5    bound_to 1    AM7 ON 

> <Gold.Score>
     Score         DG    S(hbond)    S(metal)    S(lipo)     H(rot)  DE(clash)    DE(int)    S(bar)      intcor
     43.69     -43.83      14.76        0.00      56.93       1.41       0.06       0.08      14.00       0.00

> <Gold.Chemscore.Fitness>
43.6906

> <Gold.Chemscore.DG>
-43.8278

> <Gold.Chemscore.ZeroCoef>
-5.4800

> <Gold.Chemscore.Hbond>
14.7557

> <Gold.Chemscore.Metal>
0.0000

> <Gold.Chemscore.Lipo>
56.9301

> <Gold.Chemscore.Internal_Hbond>
0.0000

> <Gold.Chemscore.DEClash>
0.0580

> <Gold.Chemscore.DEInternal>
0.0792

> <Gold.Chemscore.Rot>
1.4051

> <Gold.Chemscore.Internal.Correction>
0.0000

> <Gold.Chemscore.SBar>
14.0000

> <Gold.Chemscore.Hbonds>
donor molecule, donor type, donor heavy atom, donor atom, acceptor molecule, acceptor atom, score
      L1  H     8    16       P1   238  0.96
     AM1  H     1     2      AM6     1  0.97
     AM1  H     1     3       L1     6  0.82
     AM2  H     1     2       P1   358  0.93
     AM3  H     1     2       L1     6  0.88
     AM3  H     1     3       P1   701  0.72
     AM4  H     1     2       P1   238  1.00
     AM4  H     1     3       P1   267  1.00
     AM6  H     1     2       P1   634  1.00
     AM6  H     1     3      AM7     1  0.94
     AM7  H     1     2      AM4     1  0.95
     AM7  H     1     3       P1   419  0.95
      P1  H   701  1501      AM5     1  0.97
      P1  H   358  1251      AM1     1  0.83
      P1  H   416  1258      AM2     1  0.87
      P1  H   669  1470      AM3     1  0.96

> <Gold.Chemscore.Hbond.Weighted>
-49.2841

> <Gold.Chemscore.Metal.Weighted>
-0.0000

> <Gold.Chemscore.Lipo.Weighted>
-6.6608

> <Gold.Chemscore.Internal_Hbond.Weighted>
0.0000

> <Gold.Chemscore.DEClash.Weighted>
0.0580

> <Gold.Chemscore.DEInternal.Weighted>
0.0792

> <Gold.Chemscore.Rot.Weighted>
3.5971

> <Gold.Chemscore.Internal.Correction.Weighted>
0.0000

