#       Name:                F603-0F9249CA06B7F536-93ED94F0CCFEDE96-NMX
#       Creating user name   iorga
#       Creation time:       Wed Nov 27 15:31:57 2019


#       File generated by GOLD software.
#

@<TRIPOS>MOLECULE
F603-0F9249CA06B7F536-93ED94F0CCFEDE96-NMX|ligands_smiles_3D-hash|mol2|620|dock4
    25    26     1
SMALL
NO_CHARGES


@<TRIPOS>ATOM
      1 C1         -20.4385  12.8190  27.4995 C.3            1 <1>                0.0000
      2 S2         -18.8552  13.1486  26.6236 S.o2           1 <1>                0.0000
      3 O3         -18.8613  12.4119  25.3508 O.2            1 <1>                0.0000
      4 O4         -17.7464  12.9539  27.5701 O.2            1 <1>                0.0000
      5 C5         -18.9878  14.9477  26.2509 C.3            1 <1>                0.0000
      6 C6         -17.7746  15.6505  26.7609 C.ar           1 <1>                0.0000
      7 C7         -16.1551  16.3985  28.1350 C.ar           1 <1>                0.0000
      8 C8         -15.3238  16.6861  29.2131 C.ar           1 <1>                0.0000
      9 C9         -14.2047  17.5030  28.9462 C.ar           1 <1>                0.0000
     10 C10        -13.9466  17.9972  27.6502 C.ar           1 <1>                0.0000
     11 C11        -14.7964  17.6958  26.5649 C.ar           1 <1>                0.0000
     12 C12        -15.8975  16.8916  26.8418 C.ar           1 <1>                0.0000
     13 N13        -16.9166  16.4108  26.0222 N.pl3          1 <1>                0.0000
     14 H14        -20.4833  11.7666  27.7794 H              1 <1>                0.0000
     15 H15        -20.4959  13.4334  28.3978 H              1 <1>                0.0000
     16 H16        -21.2766  13.0535  26.8438 H              1 <1>                0.0000
     17 H17        -19.8853  15.3442  26.7263 H              1 <1>                0.0000
     18 H18        -19.0792  15.0815  25.1727 H              1 <1>                0.0000
     19 H19        -15.5176  16.3070  30.2057 H              1 <1>                0.0000
     20 H20        -13.5300  17.7549  29.7517 H              1 <1>                0.0000
     21 H21        -13.0787  18.6192  27.4851 H              1 <1>                0.0000
     22 H22        -14.5952  18.0734  25.5730 H              1 <1>                0.0000
     23 H23        -17.0169  16.5804  25.0293 H              1 <1>                0.0000
     24 N24        -17.3200  15.6389  28.0466 N.pl3          1 <1>                0.0000
     25 H25        -17.7690  15.1410  28.8049 H              1 <1>                0.0000
@<TRIPOS>BOND
    1    1    2 1     
    2    1   14 1     
    3    1   15 1     
    4    1   16 1     
    5    2    3 2     
    6    2    4 2     
    7    2    5 1     
    8    5    6 1     
    9    5   17 1     
   10    5   18 1     
   11    6   13 ar    
   12    6   24 ar    
   13    7   12 ar    
   14    7    8 ar    
   15    7   24 1     
   16    8    9 ar    
   17    8   19 1     
   18    9   10 ar    
   19    9   20 1     
   20   10   11 ar    
   21   10   21 1     
   22   11   12 ar    
   23   11   22 1     
   24   12   13 1     
   25   13   23 1     
   26   24   25 1     
@<TRIPOS>SUBSTRUCTURE
      1 ****           1
@<TRIPOS>SET
LONE_PAIRS      STATIC     ATOMS    <user>   **** ""
2 3 4
DONOR_HYDROGENS      STATIC     ATOMS    <user>   **** ""
2 23 25
ATOM$BLUE        STATIC     ATOMS    COLORGROUP SYSTEM
2 3 4
ATOM$RED        STATIC     ATOMS    COLORGROUP SYSTEM
2 23 25
@<TRIPOS>COMMENT
> <Gold.Version>
5.7.1

> <Gold.Id.Protein>
5ENC|5ENC_protein|mol2

> <Gold.Protein.RotatedTorsions>
[ 1501  701  700  697 ] final -105.94 input   60.00 | X-H torsion
[ 1497  695  694  692 ] final    4.29 input   60.00 | X-H torsion
[ 1251  358  357  355 ] final   -0.14 input   60.00 | X-H torsion
[ 1470  669  668  665 ] final   40.38 input   60.00 | X-H torsion

> <Gold.Protein.ActiveResidues>
 PRO28   PHE29   GLN31   PRO32   VAL33   TYR38   TYR41   PRO48   MET49   ASP50  
 ILE76   ASN79   SER80   TYR83   THR84   ILE91  

> <Gold.Protein.RotatedAtoms>
  -16.3657    9.5759   24.7099 H   0  0  0  0  0  0  0  0  0  0  0  0  # atno 1251 bound_to 358 
  -21.6559   11.0699   22.8736 H   0  0  0  0  0  0  0  0  0  0  0  0  # atno 1470 bound_to 669 
  -18.5854    9.1202   32.6425 H   0  0  0  0  0  0  0  0  0  0  0  0  # atno 1497 bound_to 695 
  -23.3797   11.3390   27.0525 H   0  0  0  0  0  0  0  0  0  0  0  0  # atno 1501 bound_to 701 
  -22.3673   11.2381   25.7825 LP  0  0  0  0  0  0  0  0  0  0  0  0  # atno 2046 bound_to 701 
  -22.5028    9.9875   26.8237 LP  0  0  0  0  0  0  0  0  0  0  0  0  # atno 2047 bound_to 701 
  -19.9886    9.9411   32.5687 LP  0  0  0  0  0  0  0  0  0  0  0  0  # atno 2052 bound_to 695 
  -18.5873   10.6756   32.1642 LP  0  0  0  0  0  0  0  0  0  0  0  0  # atno 2053 bound_to 695 
  -15.1523    8.5241   24.4461 LP  0  0  0  0  0  0  0  0  0  0  0  0  # atno 2056 bound_to 358 
  -14.8627   10.1310   24.4253 LP  0  0  0  0  0  0  0  0  0  0  0  0  # atno 2057 bound_to 358 

> <Gold.Protein.RotatedWaterAtoms>
  -17.7040   10.2320   24.0390 O.3 0  0  0  0  0  0  0  0  0  0  0  0  # atno 1    bound_to 2    3    AM1 ON 
  -17.6930   10.2349   23.0461 H   0  0  0  0  0  0  0  0  0  0  0  0  # atno 2    bound_to 1    AM1 ON 
  -18.3130   10.9454   24.3653 H   0  0  0  0  0  0  0  0  0  0  0  0  # atno 3    bound_to 1    AM1 ON 
  -16.7801   10.3993   24.3831 LP  0  0  0  0  0  0  0  0  0  0  0  0  # atno 4    bound_to 1    AM1 ON 
  -18.0258    9.3435   24.3662 LP  0  0  0  0  0  0  0  0  0  0  0  0  # atno 5    bound_to 1    AM1 ON 
  -13.7450   10.2720   23.0540 O.3 0  0  0  0  0  0  0  0  0  0  0  0  # atno 1    bound_to 2    3    AM2 ON 
  -14.1931    9.7443   23.7659 H   0  0  0  0  0  0  0  0  0  0  0  0  # atno 2    bound_to 1    AM2 ON 
  -14.2169   11.1380   22.9372 H   0  0  0  0  0  0  0  0  0  0  0  0  # atno 3    bound_to 1    AM2 ON 
  -13.7691    9.7608   22.1949 LP  0  0  0  0  0  0  0  0  0  0  0  0  # atno 4    bound_to 1    AM2 ON 
  -12.7945   10.4427   23.3138 LP  0  0  0  0  0  0  0  0  0  0  0  0  # atno 5    bound_to 1    AM2 ON 
  -21.1690   11.6250   24.3940 O.3 0  0  0  0  0  0  0  0  0  0  0  0  # atno 1    bound_to 2    3    AM3 ON 
  -20.2770   12.0309   24.5539 H   0  0  0  0  0  0  0  0  0  0  0  0  # atno 2    bound_to 1    AM3 ON 
  -21.5713   11.3575   25.2617 H   0  0  0  0  0  0  0  0  0  0  0  0  # atno 3    bound_to 1    AM3 ON 
  -21.0687   10.8191   23.8105 LP  0  0  0  0  0  0  0  0  0  0  0  0  # atno 4    bound_to 1    AM3 ON 
  -21.7625   12.2915   23.9427 LP  0  0  0  0  0  0  0  0  0  0  0  0  # atno 5    bound_to 1    AM3 ON 
  -14.6550   15.1580   23.4130 O.3 0  0  0  0  0  0  0  0  0  0  0  0  # atno 1    bound_to 2    3    AM4 ON 
  -15.3450   15.8721   23.4106 H   0  0  0  0  0  0  0  0  0  0  0  0  # atno 2    bound_to 1    AM4 ON 
  -13.7795   15.5445   23.6785 H   0  0  0  0  0  0  0  0  0  0  0  0  # atno 3    bound_to 1    AM4 ON 
  -14.5811   14.7628   22.4974 LP  0  0  0  0  0  0  0  0  0  0  0  0  # atno 4    bound_to 1    AM4 ON 
  -14.9156   14.4448   24.0638 LP  0  0  0  0  0  0  0  0  0  0  0  0  # atno 5    bound_to 1    AM4 ON 
  -23.6820   12.7820   28.0340 O.3 0  0  0  0  0  0  0  0  0  0  0  0  # atno 1    bound_to 2    3    AM5 ON 
  -23.4435   12.9631   28.9808 H   0  0  0  0  0  0  0  0  0  0  0  0  # atno 2    bound_to 1    AM5 ON 
  -24.0600   13.6042   27.6248 H   0  0  0  0  0  0  0  0  0  0  0  0  # atno 3    bound_to 1    AM5 ON 
  -24.3605   12.0484   27.9956 LP  0  0  0  0  0  0  0  0  0  0  0  0  # atno 4    bound_to 1    AM5 ON 
  -22.8632   12.5054   27.5310 LP  0  0  0  0  0  0  0  0  0  0  0  0  # atno 5    bound_to 1    AM5 ON 
  -16.9520   11.2350   21.5950 O.3 0  0  0  0  0  0  0  0  0  0  0  0  # atno 1    bound_to 2    3    AM6 ON 
  -16.3953   12.0570   21.6137 H   0  0  0  0  0  0  0  0  0  0  0  0  # atno 2    bound_to 1    AM6 ON 
  -16.9451   10.8513   20.6790 H   0  0  0  0  0  0  0  0  0  0  0  0  # atno 3    bound_to 1    AM6 ON 
  -17.8907   11.4622   21.8542 LP  0  0  0  0  0  0  0  0  0  0  0  0  # atno 4    bound_to 1    AM6 ON 
  -16.5809   10.5663   22.2393 LP  0  0  0  0  0  0  0  0  0  0  0  0  # atno 5    bound_to 1    AM6 ON 
  -14.9200   12.9840   21.7870 O.3 0  0  0  0  0  0  0  0  0  0  0  0  # atno 1    bound_to 2    3    AM7 ON 
  -14.0427   12.5194   21.7632 H   0  0  0  0  0  0  0  0  0  0  0  0  # atno 2    bound_to 1    AM7 ON 
  -14.8628   13.7684   22.3935 H   0  0  0  0  0  0  0  0  0  0  0  0  # atno 3    bound_to 1    AM7 ON 
  -15.6215   12.3546   22.1213 LP  0  0  0  0  0  0  0  0  0  0  0  0  # atno 4    bound_to 1    AM7 ON 
  -15.1595   13.2915   20.8661 LP  0  0  0  0  0  0  0  0  0  0  0  0  # atno 5    bound_to 1    AM7 ON 

> <Gold.Score>
     Score         DG    S(hbond)    S(metal)    S(lipo)     H(rot)  DE(clash)    DE(int)    S(bar)      intcor
     46.90     -46.98      14.87        0.00      79.04       1.33       0.00       0.07      14.00       0.03

> <Gold.Chemscore.Fitness>
46.9037

> <Gold.Chemscore.DG>
-46.9756

> <Gold.Chemscore.ZeroCoef>
-5.4800

> <Gold.Chemscore.Hbond>
14.8699

> <Gold.Chemscore.Metal>
0.0000

> <Gold.Chemscore.Lipo>
79.0397

> <Gold.Chemscore.Internal_Hbond>
0.0000

> <Gold.Chemscore.DEClash>
0.0000

> <Gold.Chemscore.DEInternal>
0.0718

> <Gold.Chemscore.Rot>
1.3349

> <Gold.Chemscore.Internal.Correction>
0.0307

> <Gold.Chemscore.SBar>
14.0000

> <Gold.Chemscore.Hbonds>
donor molecule, donor type, donor heavy atom, donor atom, acceptor molecule, acceptor atom, score
      L1  H    13    23       P1   238  0.99
     AM1  H     1     2      AM6     1  0.78
     AM1  H     1     3       L1     3  0.99
     AM2  H     1     2       P1   358  0.95
     AM3  H     1     2       L1     3  0.97
     AM3  H     1     3       P1   701  0.74
     AM4  H     1     2       P1   238  1.00
     AM4  H     1     3       P1   267  0.98
     AM6  H     1     2      AM7     1  0.95
     AM6  H     1     3       P1   634  0.98
     AM7  H     1     2       P1   419  0.92
     AM7  H     1     3      AM4     1  0.96
      P1  H   701  1501      AM5     1  0.98
      P1  H   358  1251      AM1     1  0.85
      P1  H   416  1258      AM2     1  0.85
      P1  H   669  1470      AM3     1  0.98

> <Gold.Chemscore.Hbond.Weighted>
-49.6653

> <Gold.Chemscore.Metal.Weighted>
-0.0000

> <Gold.Chemscore.Lipo.Weighted>
-9.2476

> <Gold.Chemscore.Internal_Hbond.Weighted>
0.0000

> <Gold.Chemscore.DEClash.Weighted>
0.0000

> <Gold.Chemscore.DEInternal.Weighted>
0.0718

> <Gold.Chemscore.Rot.Weighted>
3.4174

> <Gold.Chemscore.Internal.Correction.Weighted>
0.0307

