#       Name:                F126-52A8E2993834D422-52A8E2993834D422-NMX
#       Creating user name   iorga
#       Creation time:       Wed Nov 27 15:48:46 2019


#       File generated by GOLD software.
#

@<TRIPOS>MOLECULE
F126-52A8E2993834D422-52A8E2993834D422-NMX|ligands_smiles_3D-hash|mol2|129|dock38
    27    27     1
SMALL
NO_CHARGES


@<TRIPOS>ATOM
      1 C1         -14.6536  17.9853  28.3204 C.3            1 <1>                0.0000
      2 C2         -15.2754  17.4468  27.0227 C.3            1 <1>                0.0000
      3 C3         -16.0413  18.5193  26.2329 C.3            1 <1>                0.0000
      4 C4         -16.1236  16.2056  27.2688 C.ar           1 <1>                0.0000
      5 N5         -16.2647  15.8134  28.5379 N.ar           1 <1>                0.0000
      6 C6         -17.0228  14.7189  28.7579 C.ar           1 <1>                0.0000
      7 C7         -17.6372  14.0090  27.7060 C.ar           1 <1>                0.0000
      8 Cl8        -18.6337  12.6400  28.0641 Cl             1 <1>                0.0000
      9 C9         -17.4086  14.5048  26.3938 C.ar           1 <1>                0.0000
     10 N10        -16.6563  15.6121  26.1959 N.ar           1 <1>                0.0000
     11 C11        -17.9937  13.8705  25.1640 C.2            1 <1>                0.0000
     12 O12        -18.5981  12.8009  25.2250 O.2            1 <1>                0.0000
     13 N13        -17.8829  14.5676  24.0296 N.am           1 <1>                0.0000
     14 H14        -14.0559  17.2190  28.8151 H              1 <1>                0.0000
     15 H15        -15.4198  18.3160  29.0223 H              1 <1>                0.0000
     16 H16        -14.0005  18.8347  28.1191 H              1 <1>                0.0000
     17 H17        -14.4391  17.1441  26.3897 H              1 <1>                0.0000
     18 H18        -16.4025  18.1226  25.2835 H              1 <1>                0.0000
     19 H19        -16.9035  18.8857  26.7908 H              1 <1>                0.0000
     20 H20        -15.4022  19.3745  26.0116 H              1 <1>                0.0000
     21 H21        -17.1477  14.4117  29.7856 H              1 <1>                0.0000
     22 H22        -18.2627  14.1939  23.1717 H              1 <1>                0.0000
     23 H23        -17.4250  15.4673  24.0361 H              1 <1>                0.0000
     24 ****       -15.8288  16.3078  29.2899 LP             1 <1>                0.0000
     25 ****       -16.5036  15.9747  25.2766 LP             1 <1>                0.0000
     26 ****       -18.7070  12.3376  26.1045 LP             1 <1>                0.0000
     27 ****       -18.9804  12.3946  24.3951 LP             1 <1>                0.0000
@<TRIPOS>BOND
    1    1    2 1     
    2    1   14 1     
    3    1   15 1     
    4    1   16 1     
    5    2    3 1     
    6    2    4 1     
    7    2   17 1     
    8    3   18 1     
    9    3   19 1     
   10    3   20 1     
   11    4   10 ar    
   12    4    5 ar    
   13    5    6 ar    
   14    6    7 ar    
   15    6   21 1     
   16    7    8 1     
   17    7    9 ar    
   18    9   10 ar    
   19    9   11 1     
   20   11   12 2     
   21   11   13 am    
   22   13   22 1     
   23   13   23 1     
   24    5   24 1     
   25   10   25 1     
   26   12   26 1     
   27   12   27 1     
@<TRIPOS>SUBSTRUCTURE
      1 ****           1
@<TRIPOS>SET
LONE_PAIRS      STATIC     ATOMS    <user>   **** ""
4 24 25 26 27
DONOR_HYDROGENS      STATIC     ATOMS    <user>   **** ""
2 22 23
ATOM$BLUE        STATIC     ATOMS    COLORGROUP SYSTEM
4 24 25 26 27
ATOM$RED        STATIC     ATOMS    COLORGROUP SYSTEM
2 22 23
@<TRIPOS>COMMENT
> <Gold.Version>
5.7.1

> <Gold.Id.Protein>
5ENC|5ENC_protein|mol2

> <Gold.Protein.RotatedTorsions>
[ 1501  701  700  697 ] final  -73.38 input   60.00 | X-H torsion
[ 1497  695  694  692 ] final    9.41 input   60.00 | X-H torsion
[ 1251  358  357  355 ] final   -7.96 input   60.00 | X-H torsion
[ 1470  669  668  665 ] final   38.26 input   60.00 | X-H torsion

> <Gold.Protein.ActiveResidues>
 PRO28   PHE29   GLN31   PRO32   VAL33   TYR38   TYR41   PRO48   MET49   ASP50  
 ILE76   ASN79   SER80   TYR83   THR84   ILE91  

> <Gold.Protein.RotatedAtoms>
  -16.3799    9.4489   24.7099 H   0  0  0  0  0  0  0  0  0  0  0  0  # atno 1251 bound_to 358 
  -21.6744   11.0406   22.8756 H   0  0  0  0  0  0  0  0  0  0  0  0  # atno 1470 bound_to 669 
  -18.5157    9.1609   32.6211 H   0  0  0  0  0  0  0  0  0  0  0  0  # atno 1497 bound_to 695 
  -23.3230   10.8772   27.2953 H   0  0  0  0  0  0  0  0  0  0  0  0  # atno 1501 bound_to 701 
  -22.7009   11.5994   25.9763 LP  0  0  0  0  0  0  0  0  0  0  0  0  # atno 2046 bound_to 701 
  -22.2264   10.0913   26.3853 LP  0  0  0  0  0  0  0  0  0  0  0  0  # atno 2047 bound_to 701 
  -19.9845    9.8606   32.5931 LP  0  0  0  0  0  0  0  0  0  0  0  0  # atno 2052 bound_to 695 
  -18.6616   10.7151   32.1614 LP  0  0  0  0  0  0  0  0  0  0  0  0  # atno 2053 bound_to 695 
  -15.0365    8.5759   24.4245 LP  0  0  0  0  0  0  0  0  0  0  0  0  # atno 2056 bound_to 358 
  -14.9642   10.2071   24.4469 LP  0  0  0  0  0  0  0  0  0  0  0  0  # atno 2057 bound_to 358 

> <Gold.Protein.RotatedWaterAtoms>
  -17.7040   10.2320   24.0390 O.3 0  0  0  0  0  0  0  0  0  0  0  0  # atno 1    bound_to 2    3    AM1 ON 
  -18.1677   10.9437   24.5533 H   0  0  0  0  0  0  0  0  0  0  0  0  # atno 2    bound_to 1    AM1 ON 
  -17.6346   10.5038   23.0863 H   0  0  0  0  0  0  0  0  0  0  0  0  # atno 3    bound_to 1    AM1 ON 
  -18.2237    9.3802   24.1056 LP  0  0  0  0  0  0  0  0  0  0  0  0  # atno 4    bound_to 1    AM1 ON 
  -16.7873   10.0933   24.4137 LP  0  0  0  0  0  0  0  0  0  0  0  0  # atno 5    bound_to 1    AM1 ON 
  -13.7450   10.2720   23.0540 O.3 0  0  0  0  0  0  0  0  0  0  0  0  # atno 1    bound_to 2    3    AM2 ON 
  -14.3944   10.4816   23.7753 H   0  0  0  0  0  0  0  0  0  0  0  0  # atno 2    bound_to 1    AM2 ON 
  -13.5854   11.0847   22.5059 H   0  0  0  0  0  0  0  0  0  0  0  0  # atno 3    bound_to 1    AM2 ON 
  -14.1140    9.5458   22.4739 LP  0  0  0  0  0  0  0  0  0  0  0  0  # atno 4    bound_to 1    AM2 ON 
  -12.8827    9.9688   23.4596 LP  0  0  0  0  0  0  0  0  0  0  0  0  # atno 5    bound_to 1    AM2 ON 
  -21.1690   11.6250   24.3940 O.3 0  0  0  0  0  0  0  0  0  0  0  0  # atno 1    bound_to 2    3    AM3 ON 
  -21.5244   11.3385   25.2759 H   0  0  0  0  0  0  0  0  0  0  0  0  # atno 2    bound_to 1    AM3 ON 
  -20.3206   12.1243   24.5254 H   0  0  0  0  0  0  0  0  0  0  0  0  # atno 3    bound_to 1    AM3 ON 
  -21.8369   12.2159   23.9415 LP  0  0  0  0  0  0  0  0  0  0  0  0  # atno 4    bound_to 1    AM3 ON 
  -20.9975   10.8199   23.8262 LP  0  0  0  0  0  0  0  0  0  0  0  0  # atno 5    bound_to 1    AM3 ON 
  -14.6550   15.1580   23.4130 O.3 0  0  0  0  0  0  0  0  0  0  0  0  # atno 1    bound_to 2    3    AM4 ON 
  -13.7918   15.5912   23.6438 H   0  0  0  0  0  0  0  0  0  0  0  0  # atno 2    bound_to 1    AM4 ON 
  -15.3976   15.8008   23.5598 H   0  0  0  0  0  0  0  0  0  0  0  0  # atno 3    bound_to 1    AM4 ON 
  -14.7902   14.3545   23.9927 LP  0  0  0  0  0  0  0  0  0  0  0  0  # atno 4    bound_to 1    AM4 ON 
  -14.6413   14.8780   22.4531 LP  0  0  0  0  0  0  0  0  0  0  0  0  # atno 5    bound_to 1    AM4 ON 
  -23.6820   12.7820   28.0340 O.3 0  0  0  0  0  0  0  0  0  0  0  0  # atno 1    bound_to 2    3    AM5 OFF
  -23.8550   13.6519   27.5875 H   0  0  0  0  0  0  0  0  0  0  0  0  # atno 2    bound_to 1    AM5 OFF
  -23.3360   12.1313   27.3683 H   0  0  0  0  0  0  0  0  0  0  0  0  # atno 3    bound_to 1    AM5 OFF
  -24.5327   12.4347   28.4285 LP  0  0  0  0  0  0  0  0  0  0  0  0  # atno 4    bound_to 1    AM5 OFF
  -23.0054   12.9084   28.7594 LP  0  0  0  0  0  0  0  0  0  0  0  0  # atno 5    bound_to 1    AM5 OFF
  -16.9520   11.2350   21.5950 O.3 0  0  0  0  0  0  0  0  0  0  0  0  # atno 1    bound_to 2    3    AM6 ON 
  -16.8854   10.6886   20.7685 H   0  0  0  0  0  0  0  0  0  0  0  0  # atno 2    bound_to 1    AM6 ON 
  -16.2552   11.9425   21.5811 H   0  0  0  0  0  0  0  0  0  0  0  0  # atno 3    bound_to 1    AM6 ON 
  -16.8162   10.6490   22.3939 LP  0  0  0  0  0  0  0  0  0  0  0  0  # atno 4    bound_to 1    AM6 ON 
  -17.8565   11.6588   21.6425 LP  0  0  0  0  0  0  0  0  0  0  0  0  # atno 5    bound_to 1    AM6 ON 
  -14.9200   12.9840   21.7870 O.3 0  0  0  0  0  0  0  0  0  0  0  0  # atno 1    bound_to 2    3    AM7 ON 
  -14.0118   12.7690   21.4479 H   0  0  0  0  0  0  0  0  0  0  0  0  # atno 2    bound_to 1    AM7 ON 
  -14.8533   13.6758   22.4964 H   0  0  0  0  0  0  0  0  0  0  0  0  # atno 3    bound_to 1    AM7 ON 
  -15.3388   12.1583   22.1649 LP  0  0  0  0  0  0  0  0  0  0  0  0  # atno 4    bound_to 1    AM7 ON 
  -15.4830   13.3296   21.0362 LP  0  0  0  0  0  0  0  0  0  0  0  0  # atno 5    bound_to 1    AM7 ON 

> <Gold.Score>
     Score         DG    S(hbond)    S(metal)    S(lipo)     H(rot)  DE(clash)    DE(int)    S(bar)      intcor
     44.84     -46.28      14.03        0.00      72.79       1.00       0.76       0.68      12.00       0.72

> <Gold.Chemscore.Fitness>
44.8355

> <Gold.Chemscore.DG>
-46.2800

> <Gold.Chemscore.ZeroCoef>
-5.4800

> <Gold.Chemscore.Hbond>
14.0251

> <Gold.Chemscore.Metal>
0.0000

> <Gold.Chemscore.Lipo>
72.7872

> <Gold.Chemscore.Internal_Hbond>
0.0000

> <Gold.Chemscore.DEClash>
0.7622

> <Gold.Chemscore.DEInternal>
0.6823

> <Gold.Chemscore.Rot>
1.0000

> <Gold.Chemscore.Internal.Correction>
0.7173

> <Gold.Chemscore.SBar>
12.0000

> <Gold.Chemscore.Hbonds>
donor molecule, donor type, donor heavy atom, donor atom, acceptor molecule, acceptor atom, score
      L1  H    13    23       P1   238  0.99
     AM1  H     1     2       L1    12  0.98
     AM1  H     1     3      AM6     1  0.97
     AM2  H     1     2       P1   358  0.57
     AM2  H     1     3       P1   419  0.77
     AM3  H     1     2       P1   701  0.78
     AM3  H     1     3       L1    12  1.00
     AM4  H     1     2       P1   267  1.00
     AM4  H     1     3       P1   238  1.00
     AM6  H     1     2       P1   634  0.99
     AM6  H     1     3      AM7     1  0.98
     AM7  H     1     2       P1   419  0.99
     AM7  H     1     3      AM4     1  0.99
      P1  H   358  1251      AM1     1  0.85
      P1  H   669  1470      AM3     1  0.97
      P1  H   663  1465      AM2     1  0.19

> <Gold.Chemscore.Hbond.Weighted>
-46.8439

> <Gold.Chemscore.Metal.Weighted>
-0.0000

> <Gold.Chemscore.Lipo.Weighted>
-8.5161

> <Gold.Chemscore.Internal_Hbond.Weighted>
0.0000

> <Gold.Chemscore.DEClash.Weighted>
0.7622

> <Gold.Chemscore.DEInternal.Weighted>
0.6823

> <Gold.Chemscore.Rot.Weighted>
2.5600

> <Gold.Chemscore.Internal.Correction.Weighted>
0.7173

