#       Name:                F205-D4E7019D10C4793C-D4E7019D10C4793C-NMX
#       Creating user name   iorga
#       Creation time:       Wed Nov 27 15:55:16 2019


#       File generated by GOLD software.
#

@<TRIPOS>MOLECULE
F205-D4E7019D10C4793C-D4E7019D10C4793C-NMX|ligands_smiles_3D-hash|mol2|212|dock50
    22    22     1
SMALL
NO_CHARGES


@<TRIPOS>ATOM
      1 C1         -17.3536  13.4026  29.8666 C.3            1 <1>                0.0000
      2 C2         -17.4680  13.7779  28.3945 C.2            1 <1>                0.0000
      3 C3         -17.0010  14.9490  27.9276 C.2            1 <1>                0.0000
      4 C4         -17.1353  15.2531  26.5264 C.2            1 <1>                0.0000
      5 C5         -17.7210  14.3798  25.6861 C.2            1 <1>                0.0000
      6 N6         -17.8613  14.6491  24.3384 N.pl3          1 <1>                0.0000
      7 C7         -18.2399  13.0912  26.1749 C.2            1 <1>                0.0000
      8 O8         -18.7792  12.2798  25.4183 O.2            1 <1>                0.0000
      9 N9         -18.0891  12.8462  27.5167 N.am           1 <1>                0.0000
     10 C10        -18.5831  11.5776  28.0823 C.3            1 <1>                0.0000
     11 H11        -16.8614  14.1962  30.4297 H              1 <1>                0.0000
     12 H12        -16.7598  12.4978  29.9973 H              1 <1>                0.0000
     13 H13        -18.3370  13.2524  30.3123 H              1 <1>                0.0000
     14 H14        -16.5286  15.6600  28.5898 H              1 <1>                0.0000
     15 H15        -16.7596  16.1946  26.1525 H              1 <1>                0.0000
     16 H16        -17.5278  15.5139  23.9362 H              1 <1>                0.0000
     17 H17        -18.2997  13.9978  23.7035 H              1 <1>                0.0000
     18 H18        -19.0488  10.9051  27.3616 H              1 <1>                0.0000
     19 H19        -17.7648  11.0168  28.5344 H              1 <1>                0.0000
     20 H20        -19.3353  11.7682  28.8480 H              1 <1>                0.0000
     21 ****       -18.8732  12.4896  24.4451 LP             1 <1>                0.0000
     22 ****       -19.1224  11.4122  25.7782 LP             1 <1>                0.0000
@<TRIPOS>BOND
    1    1    2 1     
    2    1   11 1     
    3    1   12 1     
    4    1   13 1     
    5    2    9 1     
    6    2    3 2     
    7    3    4 1     
    8    3   14 1     
    9    4    5 2     
   10    4   15 1     
   11    5    6 1     
   12    5    7 1     
   13    6   16 1     
   14    6   17 1     
   15    7    8 2     
   16    7    9 am    
   17    9   10 1     
   18   10   18 1     
   19   10   19 1     
   20   10   20 1     
   21    8   21 1     
   22    8   22 1     
@<TRIPOS>SUBSTRUCTURE
      1 ****           1
@<TRIPOS>SET
LONE_PAIRS      STATIC     ATOMS    <user>   **** ""
2 21 22
DONOR_HYDROGENS      STATIC     ATOMS    <user>   **** ""
2 16 17
ATOM$BLUE        STATIC     ATOMS    COLORGROUP SYSTEM
2 21 22
ATOM$RED        STATIC     ATOMS    COLORGROUP SYSTEM
2 16 17
@<TRIPOS>COMMENT
> <Gold.Version>
5.7.1

> <Gold.Id.Protein>
5ENC|5ENC_protein|mol2

> <Gold.Protein.RotatedTorsions>
[ 1501  701  700  697 ] final -102.32 input   60.00 | X-H torsion
[ 1497  695  694  692 ] final  103.90 input   60.00 | X-H torsion
[ 1251  358  357  355 ] final   -3.79 input   60.00 | X-H torsion
[ 1470  669  668  665 ] final   41.96 input   60.00 | X-H torsion

> <Gold.Protein.ActiveResidues>
 PRO28   PHE29   GLN31   PRO32   VAL33   TYR38   TYR41   PRO48   MET49   ASP50  
 ILE76   ASN79   SER80   TYR83   THR84   ILE91  

> <Gold.Protein.RotatedAtoms>
  -16.3744    9.5168   24.7103 H   0  0  0  0  0  0  0  0  0  0  0  0  # atno 1251 bound_to 358 
  -21.6425   11.0917   22.8713 H   0  0  0  0  0  0  0  0  0  0  0  0  # atno 1470 bound_to 669 
  -18.3389   10.4571   32.1979 H   0  0  0  0  0  0  0  0  0  0  0  0  # atno 1497 bound_to 695 
  -23.3833   11.2929   27.0891 H   0  0  0  0  0  0  0  0  0  0  0  0  # atno 1501 bound_to 701 
  -22.4001   11.2867   25.7925 LP  0  0  0  0  0  0  0  0  0  0  0  0  # atno 2046 bound_to 701 
  -22.4664    9.9854   26.7768 LP  0  0  0  0  0  0  0  0  0  0  0  0  # atno 2047 bound_to 701 
  -18.8932    9.0174   32.7157 LP  0  0  0  0  0  0  0  0  0  0  0  0  # atno 2052 bound_to 695 
  -19.9310   10.2530   32.4650 LP  0  0  0  0  0  0  0  0  0  0  0  0  # atno 2053 bound_to 695 
  -15.0974    8.5463   24.4358 LP  0  0  0  0  0  0  0  0  0  0  0  0  # atno 2056 bound_to 358 
  -14.9088   10.1683   24.4352 LP  0  0  0  0  0  0  0  0  0  0  0  0  # atno 2057 bound_to 358 

> <Gold.Protein.RotatedWaterAtoms>
  -17.7040   10.2320   24.0390 O.3 0  0  0  0  0  0  0  0  0  0  0  0  # atno 1    bound_to 2    3    AM1 ON 
  -17.7071   10.5286   23.0913 H   0  0  0  0  0  0  0  0  0  0  0  0  # atno 2    bound_to 1    AM1 ON 
  -18.2926   10.8268   24.5739 H   0  0  0  0  0  0  0  0  0  0  0  0  # atno 3    bound_to 1    AM1 ON 
  -16.7718   10.2745   24.3985 LP  0  0  0  0  0  0  0  0  0  0  0  0  # atno 4    bound_to 1    AM1 ON 
  -18.0404    9.2920   24.0952 LP  0  0  0  0  0  0  0  0  0  0  0  0  # atno 5    bound_to 1    AM1 ON 
  -13.7450   10.2720   23.0540 O.3 0  0  0  0  0  0  0  0  0  0  0  0  # atno 1    bound_to 2    3    AM2 ON 
  -14.2936    9.6454   23.5949 H   0  0  0  0  0  0  0  0  0  0  0  0  # atno 2    bound_to 1    AM2 ON 
  -13.9715   11.2072   23.3000 H   0  0  0  0  0  0  0  0  0  0  0  0  # atno 3    bound_to 1    AM2 ON 
  -13.9342   10.1276   22.0827 LP  0  0  0  0  0  0  0  0  0  0  0  0  # atno 4    bound_to 1    AM2 ON 
  -12.7753   10.1058   23.2329 LP  0  0  0  0  0  0  0  0  0  0  0  0  # atno 5    bound_to 1    AM2 ON 
  -21.1690   11.6250   24.3940 O.3 0  0  0  0  0  0  0  0  0  0  0  0  # atno 1    bound_to 2    3    AM3 ON 
  -21.5700   11.3478   25.2591 H   0  0  0  0  0  0  0  0  0  0  0  0  # atno 2    bound_to 1    AM3 ON 
  -20.2656   12.0050   24.5546 H   0  0  0  0  0  0  0  0  0  0  0  0  # atno 3    bound_to 1    AM3 ON 
  -21.7496   12.3161   23.9636 LP  0  0  0  0  0  0  0  0  0  0  0  0  # atno 4    bound_to 1    AM3 ON 
  -21.0942   10.8304   23.7915 LP  0  0  0  0  0  0  0  0  0  0  0  0  # atno 5    bound_to 1    AM3 ON 
  -14.6550   15.1580   23.4130 O.3 0  0  0  0  0  0  0  0  0  0  0  0  # atno 1    bound_to 2    3    AM4 ON 
  -13.8969   15.7990   23.3946 H   0  0  0  0  0  0  0  0  0  0  0  0  # atno 2    bound_to 1    AM4 ON 
  -15.5009   15.6505   23.5807 H   0  0  0  0  0  0  0  0  0  0  0  0  # atno 3    bound_to 1    AM4 ON 
  -14.5085   14.4892   24.1419 LP  0  0  0  0  0  0  0  0  0  0  0  0  # atno 4    bound_to 1    AM4 ON 
  -14.7132   14.6853   22.5337 LP  0  0  0  0  0  0  0  0  0  0  0  0  # atno 5    bound_to 1    AM4 ON 
  -23.6820   12.7820   28.0340 O.3 0  0  0  0  0  0  0  0  0  0  0  0  # atno 1    bound_to 2    3    AM5 ON 
  -23.6259   12.8604   29.0223 H   0  0  0  0  0  0  0  0  0  0  0  0  # atno 2    bound_to 1    AM5 ON 
  -24.0181   13.6352   27.6528 H   0  0  0  0  0  0  0  0  0  0  0  0  # atno 3    bound_to 1    AM5 ON 
  -24.3078   12.0400   27.7934 LP  0  0  0  0  0  0  0  0  0  0  0  0  # atno 4    bound_to 1    AM5 ON 
  -22.7743   12.5859   27.6631 LP  0  0  0  0  0  0  0  0  0  0  0  0  # atno 5    bound_to 1    AM5 ON 
  -16.9520   11.2350   21.5950 O.3 0  0  0  0  0  0  0  0  0  0  0  0  # atno 1    bound_to 2    3    AM6 ON 
  -16.3163   11.9976   21.5778 H   0  0  0  0  0  0  0  0  0  0  0  0  # atno 2    bound_to 1    AM6 ON 
  -16.9988   10.8227   20.6927 H   0  0  0  0  0  0  0  0  0  0  0  0  # atno 3    bound_to 1    AM6 ON 
  -17.8590   11.5630   21.8591 LP  0  0  0  0  0  0  0  0  0  0  0  0  # atno 4    bound_to 1    AM6 ON 
  -16.6381   10.5541   22.2567 LP  0  0  0  0  0  0  0  0  0  0  0  0  # atno 5    bound_to 1    AM6 ON 
  -14.9200   12.9840   21.7870 O.3 0  0  0  0  0  0  0  0  0  0  0  0  # atno 1    bound_to 2    3    AM7 ON 
  -14.1275   12.9254   21.1915 H   0  0  0  0  0  0  0  0  0  0  0  0  # atno 2    bound_to 1    AM7 ON 
  -14.7398   13.6355   22.5146 H   0  0  0  0  0  0  0  0  0  0  0  0  # atno 3    bound_to 1    AM7 ON 
  -15.1065   12.0850   22.1832 LP  0  0  0  0  0  0  0  0  0  0  0  0  # atno 4    bound_to 1    AM7 ON 
  -15.7130   13.2860   21.2579 LP  0  0  0  0  0  0  0  0  0  0  0  0  # atno 5    bound_to 1    AM7 ON 

> <Gold.Score>
     Score         DG    S(hbond)    S(metal)    S(lipo)     H(rot)  DE(clash)    DE(int)    S(bar)      intcor
     47.90     -51.28      15.09        0.00      80.23       0.00       3.38       0.00      14.00       0.00

> <Gold.Chemscore.Fitness>
47.8997

> <Gold.Chemscore.DG>
-51.2763

> <Gold.Chemscore.ZeroCoef>
-5.4800

> <Gold.Chemscore.Hbond>
15.0927

> <Gold.Chemscore.Metal>
0.0000

> <Gold.Chemscore.Lipo>
80.2277

> <Gold.Chemscore.Internal_Hbond>
0.0000

> <Gold.Chemscore.DEClash>
3.3765

> <Gold.Chemscore.DEInternal>
0.0000

> <Gold.Chemscore.Rot>
0.0000

> <Gold.Chemscore.Internal.Correction>
0.0000

> <Gold.Chemscore.SBar>
14.0000

> <Gold.Chemscore.Hbonds>
donor molecule, donor type, donor heavy atom, donor atom, acceptor molecule, acceptor atom, score
      L1  H     6    16       P1   238  0.97
     AM1  H     1     2      AM6     1  0.97
     AM1  H     1     3       L1     8  0.99
     AM2  H     1     2       P1   358  0.91
     AM3  H     1     2       P1   701  0.76
     AM3  H     1     3       L1     8  0.99
     AM4  H     1     2       P1   267  1.00
     AM4  H     1     3       P1   238  0.99
     AM6  H     1     2      AM7     1  0.99
     AM6  H     1     3       P1   634  0.99
     AM7  H     1     2       P1   419  0.83
     AM7  H     1     3      AM4     1  0.95
      P1  H   701  1501      AM5     1  0.98
      P1  H   358  1251      AM1     1  0.92
      P1  H   416  1258      AM2     1  0.87
      P1  H   669  1470      AM3     1  0.97

> <Gold.Chemscore.Hbond.Weighted>
-50.4096

> <Gold.Chemscore.Metal.Weighted>
-0.0000

> <Gold.Chemscore.Lipo.Weighted>
-9.3866

> <Gold.Chemscore.Internal_Hbond.Weighted>
0.0000

> <Gold.Chemscore.DEClash.Weighted>
3.3765

> <Gold.Chemscore.DEInternal.Weighted>
0.0000

> <Gold.Chemscore.Rot.Weighted>
0.0000

> <Gold.Chemscore.Internal.Correction.Weighted>
0.0000

