#       Name:                F763-F4CDF6EB144B58DE-F4CDF6EB144B58DE-NMX
#       Creating user name   iorga
#       Creation time:       Wed Nov 27 16:08:45 2019


#       File generated by GOLD software.
#

@<TRIPOS>MOLECULE
F763-F4CDF6EB144B58DE-F4CDF6EB144B58DE-NMX|ligands_smiles_3D-hash|mol2|785|dock29
    23    23     1
SMALL
NO_CHARGES


@<TRIPOS>ATOM
      1 O1         -18.8975  11.8796  26.0091 O.2            1 <1>                0.0000
      2 C2         -18.7243  12.5847  27.0033 C.2            1 <1>                0.0000
      3 N3         -19.2204  13.8587  27.0899 N.am           1 <1>                0.0000
      4 C4         -19.9803  14.4457  25.9784 C.3            1 <1>                0.0000
      5 C5         -19.0635  14.8007  24.7968 C.3            1 <1>                0.0000
      6 O6         -17.9290  15.4955  25.2674 O.3            1 <1>                0.0000
      7 C7         -19.0512  14.6593  28.2392 C.2            1 <1>                0.0000
      8 C8         -18.3729  14.2255  29.3137 C.2            1 <1>                0.0000
      9 C9         -17.8161  12.8980  29.2514 C.2            1 <1>                0.0000
     10 Br10       -16.7881  12.2169  30.7992 Br             1 <1>                0.0000
     11 C11        -17.9729  12.1103  28.1714 C.2            1 <1>                0.0000
     12 H12        -20.7517  13.7487  25.6472 H              1 <1>                0.0000
     13 H13        -20.5248  15.3317  26.3107 H              1 <1>                0.0000
     14 H14        -18.7363  13.9023  24.2725 H              1 <1>                0.0000
     15 H15        -19.5887  15.4278  24.0758 H              1 <1>                0.0000
     16 H16        -17.5541  15.9821  24.5491 H              1 <1>                0.0000
     17 H17        -19.5103  15.6362  28.1908 H              1 <1>                0.0000
     18 H18        -18.2531  14.8446  30.1906 H              1 <1>                0.0000
     19 H19        -17.5411  11.1204  28.1604 H              1 <1>                0.0000
     20 ****       -18.5213  10.9535  25.9812 LP             1 <1>                0.0000
     21 ****       -19.4144  12.2330  25.2294 LP             1 <1>                0.0000
     22 ****       -17.2573  14.8440  25.6199 LP             1 <1>                0.0000
     23 ****       -18.1978  16.1246  25.9967 LP             1 <1>                0.0000
@<TRIPOS>BOND
    1    1    2 2     
    2    2   11 1     
    3    2    3 am    
    4    3    4 1     
    5    3    7 1     
    6    4    5 1     
    7    4   12 1     
    8    4   13 1     
    9    5    6 1     
   10    5   14 1     
   11    5   15 1     
   12    6   16 1     
   13    7    8 2     
   14    7   17 1     
   15    8    9 1     
   16    8   18 1     
   17    9   10 1     
   18    9   11 2     
   19   11   19 1     
   20    1   20 1     
   21    1   21 1     
   22    6   22 1     
   23    6   23 1     
@<TRIPOS>SUBSTRUCTURE
      1 ****           1
@<TRIPOS>SET
LONE_PAIRS      STATIC     ATOMS    <user>   **** ""
4 20 21 22 23
DONOR_HYDROGENS      STATIC     ATOMS    <user>   **** ""
1 16
ATOM$BLUE        STATIC     ATOMS    COLORGROUP SYSTEM
4 20 21 22 23
ATOM$RED        STATIC     ATOMS    COLORGROUP SYSTEM
1 16
@<TRIPOS>COMMENT
> <Gold.Version>
5.7.1

> <Gold.Id.Protein>
5ENC|5ENC_protein|mol2

> <Gold.Protein.RotatedTorsions>
[ 1501  701  700  697 ] final -105.47 input   60.00 | X-H torsion
[ 1497  695  694  692 ] final  173.27 input   60.00 | X-H torsion
[ 1251  358  357  355 ] final   -6.86 input   60.00 | X-H torsion
[ 1470  669  668  665 ] final   37.69 input   60.00 | X-H torsion

> <Gold.Protein.ActiveResidues>
 PRO28   PHE29   GLN31   PRO32   VAL33   TYR38   TYR41   PRO48   MET49   ASP50  
 ILE76   ASN79   SER80   TYR83   THR84   ILE91  

> <Gold.Protein.RotatedAtoms>
  -16.3789    9.4669   24.7101 H   0  0  0  0  0  0  0  0  0  0  0  0  # atno 1251 bound_to 358 
  -21.6795   11.0328   22.8760 H   0  0  0  0  0  0  0  0  0  0  0  0  # atno 1470 bound_to 669 
  -19.3580   10.7657   32.2315 H   0  0  0  0  0  0  0  0  0  0  0  0  # atno 1497 bound_to 695 
  -23.3803   11.3333   27.0573 H   0  0  0  0  0  0  0  0  0  0  0  0  # atno 1501 bound_to 701 
  -22.3714   11.2444   25.7836 LP  0  0  0  0  0  0  0  0  0  0  0  0  # atno 2046 bound_to 701 
  -22.4981    9.9870   26.8178 LP  0  0  0  0  0  0  0  0  0  0  0  0  # atno 2047 bound_to 701 
  -18.1333    9.7085   32.4058 LP  0  0  0  0  0  0  0  0  0  0  0  0  # atno 2052 bound_to 695 
  -19.6645    9.2510   32.7411 LP  0  0  0  0  0  0  0  0  0  0  0  0  # atno 2053 bound_to 695 
  -15.0524    8.5676   24.4275 LP  0  0  0  0  0  0  0  0  0  0  0  0  # atno 2056 bound_to 358 
  -14.9493   10.1973   24.4438 LP  0  0  0  0  0  0  0  0  0  0  0  0  # atno 2057 bound_to 358 

> <Gold.Protein.RotatedWaterAtoms>
  -17.7040   10.2320   24.0390 O.3 0  0  0  0  0  0  0  0  0  0  0  0  # atno 1    bound_to 2    3    AM1 ON 
  -17.6338   10.6241   23.1294 H   0  0  0  0  0  0  0  0  0  0  0  0  # atno 2    bound_to 1    AM1 ON 
  -18.3686   10.7445   24.5700 H   0  0  0  0  0  0  0  0  0  0  0  0  # atno 3    bound_to 1    AM1 ON 
  -16.8126   10.2747   24.4902 LP  0  0  0  0  0  0  0  0  0  0  0  0  # atno 4    bound_to 1    AM1 ON 
  -17.9969    9.2784   23.9692 LP  0  0  0  0  0  0  0  0  0  0  0  0  # atno 5    bound_to 1    AM1 ON 
  -13.7450   10.2720   23.0540 O.3 0  0  0  0  0  0  0  0  0  0  0  0  # atno 1    bound_to 2    3    AM2 ON 
  -14.2794   11.0960   22.9076 H   0  0  0  0  0  0  0  0  0  0  0  0  # atno 2    bound_to 1    AM2 ON 
  -14.2211    9.6775   23.6913 H   0  0  0  0  0  0  0  0  0  0  0  0  # atno 3    bound_to 1    AM2 ON 
  -12.8514   10.5167   23.4304 LP  0  0  0  0  0  0  0  0  0  0  0  0  # atno 4    bound_to 1    AM2 ON 
  -13.6210    9.7961   22.1833 LP  0  0  0  0  0  0  0  0  0  0  0  0  # atno 5    bound_to 1    AM2 ON 
  -21.1690   11.6250   24.3940 O.3 0  0  0  0  0  0  0  0  0  0  0  0  # atno 1    bound_to 2    3    AM3 ON 
  -21.5536   11.2629   25.2349 H   0  0  0  0  0  0  0  0  0  0  0  0  # atno 2    bound_to 1    AM3 ON 
  -20.2220   11.8820   24.5469 H   0  0  0  0  0  0  0  0  0  0  0  0  # atno 3    bound_to 1    AM3 ON 
  -21.6905   12.4289   24.1080 LP  0  0  0  0  0  0  0  0  0  0  0  0  # atno 4    bound_to 1    AM3 ON 
  -21.2138   10.9270   23.6793 LP  0  0  0  0  0  0  0  0  0  0  0  0  # atno 5    bound_to 1    AM3 ON 
  -14.6550   15.1580   23.4130 O.3 0  0  0  0  0  0  0  0  0  0  0  0  # atno 1    bound_to 2    3    AM4 ON 
  -15.4178   15.7663   23.5980 H   0  0  0  0  0  0  0  0  0  0  0  0  # atno 2    bound_to 1    AM4 ON 
  -13.8013   15.6395   23.5731 H   0  0  0  0  0  0  0  0  0  0  0  0  # atno 3    bound_to 1    AM4 ON 
  -14.6934   14.8552   22.4607 LP  0  0  0  0  0  0  0  0  0  0  0  0  # atno 4    bound_to 1    AM4 ON 
  -14.7080   14.3634   24.0178 LP  0  0  0  0  0  0  0  0  0  0  0  0  # atno 5    bound_to 1    AM4 ON 
  -23.6820   12.7820   28.0340 O.3 0  0  0  0  0  0  0  0  0  0  0  0  # atno 1    bound_to 2    3    AM5 ON 
  -24.5437   13.0766   28.4300 H   0  0  0  0  0  0  0  0  0  0  0  0  # atno 2    bound_to 1    AM5 ON 
  -22.9957   13.4861   28.1737 H   0  0  0  0  0  0  0  0  0  0  0  0  # atno 3    bound_to 1    AM5 ON 
  -23.8024   12.6236   27.0540 LP  0  0  0  0  0  0  0  0  0  0  0  0  # atno 4    bound_to 1    AM5 ON 
  -23.3850   11.9349   28.4746 LP  0  0  0  0  0  0  0  0  0  0  0  0  # atno 5    bound_to 1    AM5 ON 
  -16.9520   11.2350   21.5950 O.3 0  0  0  0  0  0  0  0  0  0  0  0  # atno 1    bound_to 2    3    AM6 ON 
  -17.1092   10.8796   20.6812 H   0  0  0  0  0  0  0  0  0  0  0  0  # atno 2    bound_to 1    AM6 ON 
  -16.3326   12.0098   21.5467 H   0  0  0  0  0  0  0  0  0  0  0  0  # atno 3    bound_to 1    AM6 ON 
  -16.5479   10.5202   22.1658 LP  0  0  0  0  0  0  0  0  0  0  0  0  # atno 4    bound_to 1    AM6 ON 
  -17.8215   11.5276   21.9930 LP  0  0  0  0  0  0  0  0  0  0  0  0  # atno 5    bound_to 1    AM6 ON 
  -14.9200   12.9840   21.7870 O.3 0  0  0  0  0  0  0  0  0  0  0  0  # atno 1    bound_to 2    3    AM7 ON 
  -14.0307   12.7518   21.4112 H   0  0  0  0  0  0  0  0  0  0  0  0  # atno 2    bound_to 1    AM7 ON 
  -14.8228   13.7382   22.4257 H   0  0  0  0  0  0  0  0  0  0  0  0  # atno 3    bound_to 1    AM7 ON 
  -15.2981   12.1903   22.2635 LP  0  0  0  0  0  0  0  0  0  0  0  0  # atno 4    bound_to 1    AM7 ON 
  -15.5354   13.2521   21.0458 LP  0  0  0  0  0  0  0  0  0  0  0  0  # atno 5    bound_to 1    AM7 ON 

> <Gold.Score>
     Score         DG    S(hbond)    S(metal)    S(lipo)     H(rot)  DE(clash)    DE(int)    S(bar)      intcor
     48.89     -49.15      15.06        0.00     101.75       1.77       0.09       0.18      14.00       0.00

> <Gold.Chemscore.Fitness>
48.8855

> <Gold.Chemscore.DG>
-49.1545

> <Gold.Chemscore.ZeroCoef>
-5.4800

> <Gold.Chemscore.Hbond>
15.0611

> <Gold.Chemscore.Metal>
0.0000

> <Gold.Chemscore.Lipo>
101.7482

> <Gold.Chemscore.Internal_Hbond>
0.0000

> <Gold.Chemscore.DEClash>
0.0931

> <Gold.Chemscore.DEInternal>
0.1760

> <Gold.Chemscore.Rot>
1.7712

> <Gold.Chemscore.Internal.Correction>
0.0003

> <Gold.Chemscore.SBar>
14.0000

> <Gold.Chemscore.Hbonds>
donor molecule, donor type, donor heavy atom, donor atom, acceptor molecule, acceptor atom, score
      L1  H     6    16       P1   238  0.99
     AM1  H     1     2      AM6     1  0.99
     AM1  H     1     3       L1     1  0.98
     AM2  H     1     3       P1   358  0.94
     AM3  H     1     2       P1   701  0.72
     AM3  H     1     3       L1     1  0.78
     AM4  H     1     2       P1   238  1.00
     AM4  H     1     3       P1   267  1.00
     AM6  H     1     2       P1   634  0.99
     AM6  H     1     3      AM7     1  0.99
     AM7  H     1     2       P1   419  1.00
     AM7  H     1     3      AM4     1  0.99
      P1  H   701  1501      AM5     1  0.99
      P1  H   358  1251      AM1     1  0.92
      P1  H   416  1258      AM2     1  0.87
      P1  H   669  1470      AM3     1  0.95

> <Gold.Chemscore.Hbond.Weighted>
-50.3042

> <Gold.Chemscore.Metal.Weighted>
-0.0000

> <Gold.Chemscore.Lipo.Weighted>
-11.9045

> <Gold.Chemscore.Internal_Hbond.Weighted>
0.0000

> <Gold.Chemscore.DEClash.Weighted>
0.0931

> <Gold.Chemscore.DEInternal.Weighted>
0.1760

> <Gold.Chemscore.Rot.Weighted>
4.5342

> <Gold.Chemscore.Internal.Correction.Weighted>
0.0003

