#       Name:                F11-58CE4EFA599E1D9F-58CE4EFA599E1D9F-NMX
#       Creating user name   iorga
#       Creation time:       Wed Nov 27 11:56:08 2019


#       File generated by GOLD software.
#

@<TRIPOS>MOLECULE
F11-58CE4EFA599E1D9F-58CE4EFA599E1D9F-NMX|ligands_smiles_3D-hash|mol2|11|dock42
    18    19     1
SMALL
NO_CHARGES


@<TRIPOS>ATOM
      1 Br1        -16.8036  12.0130  30.6529 Br             1 <1>                0.0000
      2 C2         -17.1270  13.5492  29.5692 C.ar           1 <1>                0.0000
      3 C3         -16.7925  14.8174  30.0715 C.ar           1 <1>                0.0000
      4 C4         -17.0367  15.9374  29.2617 C.ar           1 <1>                0.0000
      5 N5         -17.5753  15.8522  28.0293 N.ar           1 <1>                0.0000
      6 C6         -17.9103  14.6462  27.5126 C.ar           1 <1>                0.0000
      7 N7         -18.4511  14.5690  26.2731 N.ar           1 <1>                0.0000
      8 C8         -18.7873  13.3724  25.7514 C.ar           1 <1>                0.0000
      9 C9         -18.6063  12.1593  26.4344 C.ar           1 <1>                0.0000
     10 C10        -18.0477  12.2038  27.7221 C.ar           1 <1>                0.0000
     11 C11        -17.6930  13.4554  28.2748 C.ar           1 <1>                0.0000
     12 H12        -16.3588  14.9292  31.0543 H              1 <1>                0.0000
     13 H13        -16.7937  16.9298  29.6114 H              1 <1>                0.0000
     14 H14        -19.2135  13.3840  24.7590 H              1 <1>                0.0000
     15 H15        -18.8885  11.2197  25.9825 H              1 <1>                0.0000
     16 H16        -17.9009  11.2813  28.2627 H              1 <1>                0.0000
     17 ****       -17.7282  16.6830  27.4941 LP             1 <1>                0.0000
     18 ****       -18.6017  15.4033  25.7428 LP             1 <1>                0.0000
@<TRIPOS>BOND
    1    1    2 1     
    2    2   11 ar    
    3    2    3 ar    
    4    3    4 ar    
    5    3   12 1     
    6    4    5 ar    
    7    4   13 1     
    8    5    6 ar    
    9    6   11 ar    
   10    6    7 ar    
   11    7    8 ar    
   12    8    9 ar    
   13    8   14 1     
   14    9   10 ar    
   15    9   15 1     
   16   10   11 ar    
   17   10   16 1     
   18    5   17 1     
   19    7   18 1     
@<TRIPOS>SUBSTRUCTURE
      1 ****           1
@<TRIPOS>SET
LONE_PAIRS      STATIC     ATOMS    <user>   **** ""
2 17 18
ATOM$BLUE        STATIC     ATOMS    COLORGROUP SYSTEM
2 17 18
@<TRIPOS>COMMENT
> <Gold.Version>
5.7.1

> <Gold.Id.Protein>
5ENC|5ENC_protein|mol2

> <Gold.Protein.RotatedTorsions>
[ 1501  701  700  697 ] final -108.30 input   60.00 | X-H torsion
[ 1497  695  694  692 ] final  123.60 input   60.00 | X-H torsion
[ 1251  358  357  355 ] final   -2.33 input   60.00 | X-H torsion
[ 1470  669  668  665 ] final   42.20 input   60.00 | X-H torsion

> <Gold.Protein.ActiveResidues>
 PRO28   PHE29   GLN31   PRO32   VAL33   TYR38   TYR41   PRO48   MET49   ASP50  
 ILE76   ASN79   SER80   TYR83   THR84   ILE91  

> <Gold.Protein.RotatedAtoms>
  -16.3714    9.5406   24.7102 H   0  0  0  0  0  0  0  0  0  0  0  0  # atno 1251 bound_to 358 
  -21.6405   11.0951   22.8708 H   0  0  0  0  0  0  0  0  0  0  0  0  # atno 1470 bound_to 669 
  -18.5811   10.6638   32.1647 H   0  0  0  0  0  0  0  0  0  0  0  0  # atno 1497 bound_to 695 
  -23.3760   11.3682   27.0274 H   0  0  0  0  0  0  0  0  0  0  0  0  # atno 1501 bound_to 701 
  -22.3467   11.2055   25.7776 LP  0  0  0  0  0  0  0  0  0  0  0  0  # atno 2046 bound_to 701 
  -22.5272    9.9907   26.8539 LP  0  0  0  0  0  0  0  0  0  0  0  0  # atno 2047 bound_to 701 
  -18.5917    9.1102   32.6488 LP  0  0  0  0  0  0  0  0  0  0  0  0  # atno 2052 bound_to 695 
  -19.9885    9.9520   32.5654 LP  0  0  0  0  0  0  0  0  0  0  0  0  # atno 2053 bound_to 695 
  -15.1193    8.5369   24.4399 LP  0  0  0  0  0  0  0  0  0  0  0  0  # atno 2056 bound_to 358 
  -14.8901   10.1537   24.4312 LP  0  0  0  0  0  0  0  0  0  0  0  0  # atno 2057 bound_to 358 

> <Gold.Protein.RotatedWaterAtoms>
  -17.7040   10.2320   24.0390 O.3 0  0  0  0  0  0  0  0  0  0  0  0  # atno 1    bound_to 2    3    AM1 ON 
  -17.6761   10.6051   23.1192 H   0  0  0  0  0  0  0  0  0  0  0  0  # atno 2    bound_to 1    AM1 ON 
  -18.6487   10.1467   24.3331 H   0  0  0  0  0  0  0  0  0  0  0  0  # atno 3    bound_to 1    AM1 ON 
  -17.2150   10.8430   24.6615 LP  0  0  0  0  0  0  0  0  0  0  0  0  # atno 4    bound_to 1    AM1 ON 
  -17.2698    9.3312   24.0467 LP  0  0  0  0  0  0  0  0  0  0  0  0  # atno 5    bound_to 1    AM1 ON 
  -13.7450   10.2720   23.0540 O.3 0  0  0  0  0  0  0  0  0  0  0  0  # atno 1    bound_to 2    3    AM2 ON 
  -14.1599    9.7299   23.7752 H   0  0  0  0  0  0  0  0  0  0  0  0  # atno 2    bound_to 1    AM2 ON 
  -14.2631   11.1102   22.9302 H   0  0  0  0  0  0  0  0  0  0  0  0  # atno 3    bound_to 1    AM2 ON 
  -13.7471    9.7497   22.2012 LP  0  0  0  0  0  0  0  0  0  0  0  0  # atno 4    bound_to 1    AM2 ON 
  -12.8034   10.4962   23.3052 LP  0  0  0  0  0  0  0  0  0  0  0  0  # atno 5    bound_to 1    AM2 ON 
  -21.1690   11.6250   24.3940 O.3 0  0  0  0  0  0  0  0  0  0  0  0  # atno 1    bound_to 2    3    AM3 ON 
  -21.5392   11.2453   25.2335 H   0  0  0  0  0  0  0  0  0  0  0  0  # atno 2    bound_to 1    AM3 ON 
  -20.2127   11.8564   24.5289 H   0  0  0  0  0  0  0  0  0  0  0  0  # atno 3    bound_to 1    AM3 ON 
  -21.6796   12.4486   24.1470 LP  0  0  0  0  0  0  0  0  0  0  0  0  # atno 4    bound_to 1    AM3 ON 
  -21.2485   10.9508   23.6597 LP  0  0  0  0  0  0  0  0  0  0  0  0  # atno 5    bound_to 1    AM3 ON 
  -14.6550   15.1580   23.4130 O.3 0  0  0  0  0  0  0  0  0  0  0  0  # atno 1    bound_to 2    3    AM4 ON 
  -15.3102   15.9040   23.3970 H   0  0  0  0  0  0  0  0  0  0  0  0  # atno 2    bound_to 1    AM4 ON 
  -13.7468   15.5189   23.5895 H   0  0  0  0  0  0  0  0  0  0  0  0  # atno 3    bound_to 1    AM4 ON 
  -14.6616   14.6894   22.5296 LP  0  0  0  0  0  0  0  0  0  0  0  0  # atno 4    bound_to 1    AM4 ON 
  -14.9030   14.5119   24.1348 LP  0  0  0  0  0  0  0  0  0  0  0  0  # atno 5    bound_to 1    AM4 ON 
  -23.6820   12.7820   28.0340 O.3 0  0  0  0  0  0  0  0  0  0  0  0  # atno 1    bound_to 2    3    AM5 ON 
  -23.6628   12.7628   29.0266 H   0  0  0  0  0  0  0  0  0  0  0  0  # atno 2    bound_to 1    AM5 ON 
  -23.9957   13.6726   27.7262 H   0  0  0  0  0  0  0  0  0  0  0  0  # atno 3    bound_to 1    AM5 ON 
  -24.3049   12.0750   27.6990 LP  0  0  0  0  0  0  0  0  0  0  0  0  # atno 4    bound_to 1    AM5 ON 
  -22.7626   12.6115   27.6794 LP  0  0  0  0  0  0  0  0  0  0  0  0  # atno 5    bound_to 1    AM5 ON 
  -16.9520   11.2350   21.5950 O.3 0  0  0  0  0  0  0  0  0  0  0  0  # atno 1    bound_to 2    3    AM6 ON 
  -16.2432   11.9250   21.5077 H   0  0  0  0  0  0  0  0  0  0  0  0  # atno 2    bound_to 1    AM6 ON 
  -17.1127   10.8119   20.7110 H   0  0  0  0  0  0  0  0  0  0  0  0  # atno 3    bound_to 1    AM6 ON 
  -17.7960   11.6631   21.9180 LP  0  0  0  0  0  0  0  0  0  0  0  0  # atno 4    bound_to 1    AM6 ON 
  -16.6599   10.5381   22.2499 LP  0  0  0  0  0  0  0  0  0  0  0  0  # atno 5    bound_to 1    AM6 ON 
  -14.9200   12.9840   21.7870 O.3 0  0  0  0  0  0  0  0  0  0  0  0  # atno 1    bound_to 2    3    AM7 ON 
  -14.9313   13.6642   22.5104 H   0  0  0  0  0  0  0  0  0  0  0  0  # atno 2    bound_to 1    AM7 ON 
  -13.9877   12.6768   21.6361 H   0  0  0  0  0  0  0  0  0  0  0  0  # atno 3    bound_to 1    AM7 ON 
  -15.2786   13.3869   20.9449 LP  0  0  0  0  0  0  0  0  0  0  0  0  # atno 4    bound_to 1    AM7 ON 
  -15.4887   12.2055   22.0525 LP  0  0  0  0  0  0  0  0  0  0  0  0  # atno 5    bound_to 1    AM7 ON 

> <Gold.Score>
     Score         DG    S(hbond)    S(metal)    S(lipo)     H(rot)  DE(clash)    DE(int)    S(bar)      intcor
     47.00     -47.09      12.27        0.00     124.85       0.00       0.09       0.00      14.00       0.00

> <Gold.Chemscore.Fitness>
46.9986

> <Gold.Chemscore.DG>
-47.0857

> <Gold.Chemscore.ZeroCoef>
-5.4800

> <Gold.Chemscore.Hbond>
12.2750

> <Gold.Chemscore.Metal>
0.0000

> <Gold.Chemscore.Lipo>
124.8484

> <Gold.Chemscore.Internal_Hbond>
0.0000

> <Gold.Chemscore.DEClash>
0.0871

> <Gold.Chemscore.DEInternal>
0.0000

> <Gold.Chemscore.Rot>
0.0000

> <Gold.Chemscore.Internal.Correction>
0.0000

> <Gold.Chemscore.SBar>
14.0000

> <Gold.Chemscore.Hbonds>
donor molecule, donor type, donor heavy atom, donor atom, acceptor molecule, acceptor atom, score
     AM1  H     1     2      AM6     1  0.98
     AM2  H     1     2       P1   358  0.93
     AM3  H     1     2       P1   701  0.70
     AM4  H     1     2       P1   238  1.00
     AM4  H     1     3       P1   267  0.99
     AM6  H     1     2      AM7     1  0.97
     AM6  H     1     3       P1   634  1.00
     AM7  H     1     2      AM4     1  0.98
     AM7  H     1     3       P1   419  0.98
      P1  H   701  1501      AM5     1  0.99
      P1  H   358  1251      AM1     1  0.94
      P1  H   416  1258      AM2     1  0.87
      P1  H   669  1470      AM3     1  0.94

> <Gold.Chemscore.Hbond.Weighted>
-40.9984

> <Gold.Chemscore.Metal.Weighted>
-0.0000

> <Gold.Chemscore.Lipo.Weighted>
-14.6073

> <Gold.Chemscore.Internal_Hbond.Weighted>
0.0000

> <Gold.Chemscore.DEClash.Weighted>
0.0871

> <Gold.Chemscore.DEInternal.Weighted>
0.0000

> <Gold.Chemscore.Rot.Weighted>
0.0000

> <Gold.Chemscore.Internal.Correction.Weighted>
0.0000

