#       Name:                F96-F31AF8079B012C15-F31AF8079B012C15-NMX
#       Creating user name   iorga
#       Creation time:       Wed Nov 27 12:28:04 2019


#       File generated by GOLD software.
#

@<TRIPOS>MOLECULE
F96-F31AF8079B012C15-F31AF8079B012C15-NMX|ligands_smiles_3D-hash|mol2|97|dock41
    22    22     1
SMALL
NO_CHARGES


@<TRIPOS>ATOM
      1 C1         -20.8100  14.1421  31.5524 C.3            1 <1>                0.0000
      2 C2         -19.5353  13.4586  31.0678 C.2            1 <1>                0.0000
      3 O3         -18.8997  12.7358  31.8347 O.2            1 <1>                0.0000
      4 N4         -19.1740  13.6903  29.7963 N.am           1 <1>                0.0000
      5 C5         -17.9976  13.1290  29.1429 C.3            1 <1>                0.0000
      6 C6         -18.1533  13.0682  27.6473 C.2            1 <1>                0.0000
      7 C7         -18.6892  12.0021  26.8657 C.2            1 <1>                0.0000
      8 N8         -18.6964  12.2627  25.5676 N.2            1 <1>                0.0000
      9 N9         -18.1712  13.4993  25.4886 N.pl3          1 <1>                0.0000
     10 C10        -17.8338  14.0172  26.7167 C.2            1 <1>                0.0000
     11 H11        -21.1852  14.8584  30.8204 H              1 <1>                0.0000
     12 H12        -21.5873  13.3996  31.7343 H              1 <1>                0.0000
     13 H13        -20.6206  14.6755  32.4842 H              1 <1>                0.0000
     14 H14        -19.7563  14.3004  29.2411 H              1 <1>                0.0000
     15 H15        -17.8402  12.1313  29.5531 H              1 <1>                0.0000
     16 H16        -17.1134  13.7034  29.4243 H              1 <1>                0.0000
     17 H17        -19.0719  11.0505  27.2039 H              1 <1>                0.0000
     18 H18        -18.0527  13.9710  24.6031 H              1 <1>                0.0000
     19 H19        -17.4047  15.0022  26.8266 H              1 <1>                0.0000
     20 ****       -19.2194  12.5982  32.7722 LP             1 <1>                0.0000
     21 ****       -18.0637  12.2862  31.5204 LP             1 <1>                0.0000
     22 ****       -19.0166  11.6784  24.8218 LP             1 <1>                0.0000
@<TRIPOS>BOND
    1    1    2 1     
    2    1   11 1     
    3    1   12 1     
    4    1   13 1     
    5    2    3 2     
    6    2    4 am    
    7    4    5 1     
    8    4   14 1     
    9    5    6 1     
   10    5   15 1     
   11    5   16 1     
   12    6   10 2     
   13    6    7 1     
   14    7    8 2     
   15    7   17 1     
   16    8    9 1     
   17    9   10 1     
   18    9   18 1     
   19   10   19 1     
   20    3   20 1     
   21    3   21 1     
   22    8   22 1     
@<TRIPOS>SUBSTRUCTURE
      1 ****           1
@<TRIPOS>SET
LONE_PAIRS      STATIC     ATOMS    <user>   **** ""
3 20 21 22
DONOR_HYDROGENS      STATIC     ATOMS    <user>   **** ""
2 14 18
ATOM$BLUE        STATIC     ATOMS    COLORGROUP SYSTEM
3 20 21 22
ATOM$RED        STATIC     ATOMS    COLORGROUP SYSTEM
2 14 18
@<TRIPOS>COMMENT
> <Gold.Version>
5.7.1

> <Gold.Id.Protein>
5ENC|5ENC_protein|mol2

> <Gold.Protein.RotatedTorsions>
[ 1501  701  700  697 ] final  -41.81 input   60.00 | X-H torsion
[ 1497  695  694  692 ] final  146.99 input   60.00 | X-H torsion
[ 1251  358  357  355 ] final   -5.12 input   60.00 | X-H torsion
[ 1470  669  668  665 ] final   39.17 input   60.00 | X-H torsion

> <Gold.Protein.ActiveResidues>
 PRO28   PHE29   GLN31   PRO32   VAL33   TYR38   TYR41   PRO48   MET49   ASP50  
 ILE76   ASN79   SER80   TYR83   THR84   ILE91  

> <Gold.Protein.RotatedAtoms>
  -16.3767    9.4953   24.7103 H   0  0  0  0  0  0  0  0  0  0  0  0  # atno 1251 bound_to 358 
  -21.6664   11.0532   22.8749 H   0  0  0  0  0  0  0  0  0  0  0  0  # atno 1470 bound_to 669 
  -18.9379   10.7934   32.1697 H   0  0  0  0  0  0  0  0  0  0  0  0  # atno 1497 bound_to 695 
  -23.0961   10.4214   27.3082 H   0  0  0  0  0  0  0  0  0  0  0  0  # atno 1501 bound_to 701 
  -23.0404   11.7273   26.3389 LP  0  0  0  0  0  0  0  0  0  0  0  0  # atno 2046 bound_to 701 
  -22.1153   10.4225   26.0097 LP  0  0  0  0  0  0  0  0  0  0  0  0  # atno 2047 bound_to 701 
  -18.3061    9.3406   32.5414 LP  0  0  0  0  0  0  0  0  0  0  0  0  # atno 2052 bound_to 695 
  -19.9148    9.5911   32.6676 LP  0  0  0  0  0  0  0  0  0  0  0  0  # atno 2053 bound_to 695 
  -15.0779    8.5552   24.4322 LP  0  0  0  0  0  0  0  0  0  0  0  0  # atno 2056 bound_to 358 
  -14.9261   10.1811   24.4389 LP  0  0  0  0  0  0  0  0  0  0  0  0  # atno 2057 bound_to 358 

> <Gold.Protein.RotatedWaterAtoms>
  -17.7040   10.2320   24.0390 O.3 0  0  0  0  0  0  0  0  0  0  0  0  # atno 1    bound_to 2    3    AM1 ON 
  -17.5961   10.3655   23.0610 H   0  0  0  0  0  0  0  0  0  0  0  0  # atno 2    bound_to 1    AM1 ON 
  -18.2762   10.9538   24.4104 H   0  0  0  0  0  0  0  0  0  0  0  0  # atno 3    bound_to 1    AM1 ON 
  -16.8068   10.2576   24.4800 LP  0  0  0  0  0  0  0  0  0  0  0  0  # atno 4    bound_to 1    AM1 ON 
  -18.1337    9.3452   24.2090 LP  0  0  0  0  0  0  0  0  0  0  0  0  # atno 5    bound_to 1    AM1 ON 
  -13.7450   10.2720   23.0540 O.3 0  0  0  0  0  0  0  0  0  0  0  0  # atno 1    bound_to 2    3    AM2 ON 
  -14.4260   10.8958   22.6892 H   0  0  0  0  0  0  0  0  0  0  0  0  # atno 2    bound_to 1    AM2 ON 
  -14.1714    9.6667   23.7159 H   0  0  0  0  0  0  0  0  0  0  0  0  # atno 3    bound_to 1    AM2 ON 
  -13.0188   10.7951   23.5001 LP  0  0  0  0  0  0  0  0  0  0  0  0  # atno 4    bound_to 1    AM2 ON 
  -13.3561    9.7302   22.3089 LP  0  0  0  0  0  0  0  0  0  0  0  0  # atno 5    bound_to 1    AM2 ON 
  -21.1690   11.6250   24.3940 O.3 0  0  0  0  0  0  0  0  0  0  0  0  # atno 1    bound_to 2    3    AM3 ON 
  -21.6909   11.6495   25.2384 H   0  0  0  0  0  0  0  0  0  0  0  0  # atno 2    bound_to 1    AM3 ON 
  -20.2273   11.8802   24.5794 H   0  0  0  0  0  0  0  0  0  0  0  0  # atno 3    bound_to 1    AM3 ON 
  -21.5655   12.2675   23.7383 LP  0  0  0  0  0  0  0  0  0  0  0  0  # atno 4    bound_to 1    AM3 ON 
  -21.1951   10.7009   24.0127 LP  0  0  0  0  0  0  0  0  0  0  0  0  # atno 5    bound_to 1    AM3 ON 
  -14.6550   15.1580   23.4130 O.3 0  0  0  0  0  0  0  0  0  0  0  0  # atno 1    bound_to 2    3    AM4 ON 
  -13.7932   15.6005   23.6309 H   0  0  0  0  0  0  0  0  0  0  0  0  # atno 2    bound_to 1    AM4 ON 
  -15.4064   15.7650   23.6437 H   0  0  0  0  0  0  0  0  0  0  0  0  # atno 3    bound_to 1    AM4 ON 
  -14.7372   14.3112   23.9385 LP  0  0  0  0  0  0  0  0  0  0  0  0  # atno 4    bound_to 1    AM4 ON 
  -14.6841   14.9480   22.4357 LP  0  0  0  0  0  0  0  0  0  0  0  0  # atno 5    bound_to 1    AM4 ON 
  -23.6820   12.7820   28.0340 O.3 0  0  0  0  0  0  0  0  0  0  0  0  # atno 1    bound_to 2    3    AM5 OFF
  -23.7026   11.9433   27.5027 H   0  0  0  0  0  0  0  0  0  0  0  0  # atno 2    bound_to 1    AM5 OFF
  -22.7807   12.8980   28.4347 H   0  0  0  0  0  0  0  0  0  0  0  0  # atno 3    bound_to 1    AM5 OFF
  -24.3664   12.7327   28.7615 LP  0  0  0  0  0  0  0  0  0  0  0  0  # atno 4    bound_to 1    AM5 OFF
  -23.8844   13.5591   27.4381 LP  0  0  0  0  0  0  0  0  0  0  0  0  # atno 5    bound_to 1    AM5 OFF
  -16.9520   11.2350   21.5950 O.3 0  0  0  0  0  0  0  0  0  0  0  0  # atno 1    bound_to 2    3    AM6 ON 
  -16.3404   12.0172   21.6048 H   0  0  0  0  0  0  0  0  0  0  0  0  # atno 2    bound_to 1    AM6 ON 
  -16.9865   10.8532   20.6788 H   0  0  0  0  0  0  0  0  0  0  0  0  # atno 3    bound_to 1    AM6 ON 
  -17.8687   11.5251   21.8699 LP  0  0  0  0  0  0  0  0  0  0  0  0  # atno 4    bound_to 1    AM6 ON 
  -16.6166   10.5416   22.2327 LP  0  0  0  0  0  0  0  0  0  0  0  0  # atno 5    bound_to 1    AM6 ON 
  -14.9200   12.9840   21.7870 O.3 0  0  0  0  0  0  0  0  0  0  0  0  # atno 1    bound_to 2    3    AM7 ON 
  -14.8309   13.8247   22.3080 H   0  0  0  0  0  0  0  0  0  0  0  0  # atno 2    bound_to 1    AM7 ON 
  -14.0313   12.7192   21.4314 H   0  0  0  0  0  0  0  0  0  0  0  0  # atno 3    bound_to 1    AM7 ON 
  -15.5536   13.1284   21.0269 LP  0  0  0  0  0  0  0  0  0  0  0  0  # atno 4    bound_to 1    AM7 ON 
  -15.2709   12.2596   22.3805 LP  0  0  0  0  0  0  0  0  0  0  0  0  # atno 5    bound_to 1    AM7 ON 

> <Gold.Score>
     Score         DG    S(hbond)    S(metal)    S(lipo)     H(rot)  DE(clash)    DE(int)    S(bar)      intcor
     43.57     -44.14      14.00        0.00      63.41       1.38       0.02       0.55      12.00       0.00

> <Gold.Chemscore.Fitness>
43.5716

> <Gold.Chemscore.DG>
-44.1378

> <Gold.Chemscore.ZeroCoef>
-5.4800

> <Gold.Chemscore.Hbond>
14.0019

> <Gold.Chemscore.Metal>
0.0000

> <Gold.Chemscore.Lipo>
63.4077

> <Gold.Chemscore.Internal_Hbond>
0.0000

> <Gold.Chemscore.DEClash>
0.0202

> <Gold.Chemscore.DEInternal>
0.5459

> <Gold.Chemscore.Rot>
1.3778

> <Gold.Chemscore.Internal.Correction>
0.0003

> <Gold.Chemscore.SBar>
12.0000

> <Gold.Chemscore.Hbonds>
donor molecule, donor type, donor heavy atom, donor atom, acceptor molecule, acceptor atom, score
     AM1  H     1     2      AM6     1  0.97
     AM1  H     1     3       L1     8  0.94
     AM2  H     1     3       P1   358  0.92
     AM3  H     1     2       P1   701  0.70
     AM3  H     1     3       L1     8  0.93
     AM4  H     1     2       P1   267  1.00
     AM4  H     1     3       P1   238  0.99
     AM6  H     1     2      AM7     1  0.99
     AM6  H     1     3       P1   634  0.99
     AM7  H     1     2      AM4     1  0.99
     AM7  H     1     3       P1   419  1.00
      P1  H   695  1497       L1     3  1.00
      P1  H   358  1251      AM1     1  0.78
      P1  H   416  1258      AM2     1  0.84
      P1  H   669  1470      AM3     1  0.97

> <Gold.Chemscore.Hbond.Weighted>
-46.7664

> <Gold.Chemscore.Metal.Weighted>
-0.0000

> <Gold.Chemscore.Lipo.Weighted>
-7.4187

> <Gold.Chemscore.Internal_Hbond.Weighted>
0.0000

> <Gold.Chemscore.DEClash.Weighted>
0.0202

> <Gold.Chemscore.DEInternal.Weighted>
0.5459

> <Gold.Chemscore.Rot.Weighted>
3.5273

> <Gold.Chemscore.Internal.Correction.Weighted>
0.0003

