#       Name:                F362-16EA90BE1B8281B8-16EA90BE1B8281B8-NMX
#       Creating user name   iorga
#       Creation time:       Wed Nov 27 15:36:01 2019


#       File generated by GOLD software.
#

@<TRIPOS>MOLECULE
F362-16EA90BE1B8281B8-16EA90BE1B8281B8-NMX|ligands_smiles_3D-hash|mol2|374|dock32
    34    35     1
SMALL
NO_CHARGES


@<TRIPOS>ATOM
      1 C1         -19.2641  14.6003  25.4394 C.3            1 <1>                0.0000
      2 C2         -19.6998  13.6460  26.5625 C.3            1 <1>                0.0000
      3 N3         -20.3286  14.3255  27.6940 N.3            1 <1>                0.0000
      4 C4         -20.5280  15.7707  27.5894 C.3            1 <1>                0.0000
      5 C5         -21.8770  16.1501  26.9589 C.3            1 <1>                0.0000
      6 C6         -19.9264  13.8195  28.9478 C.2            1 <1>                0.0000
      7 C7         -18.6274  13.4459  29.2346 C.2            1 <1>                0.0000
      8 C8         -18.3373  12.9525  30.5326 C.2            1 <1>                0.0000
      9 C9         -16.9269  12.5301  30.8889 C.3            1 <1>                0.0000
     10 N10        -19.2357  12.8194  31.5045 N.2            1 <1>                0.0000
     11 C11        -20.4986  13.1819  31.2189 C.2            1 <1>                0.0000
     12 N12        -21.5902  13.1544  31.9778 N.2            1 <1>                0.0000
     13 C13        -22.5627  13.6273  31.1486 C.2            1 <1>                0.0000
     14 N14        -22.1831  13.9570  29.9214 N.2            1 <1>                0.0000
     15 N15        -20.8492  13.6808  29.9507 N.pl3          1 <1>                0.0000
     16 H16        -18.7934  14.0454  24.6280 H              1 <1>                0.0000
     17 H17        -20.1136  15.1384  25.0185 H              1 <1>                0.0000
     18 H18        -18.5417  15.3350  25.7951 H              1 <1>                0.0000
     19 H19        -18.8318  13.0974  26.9295 H              1 <1>                0.0000
     20 H20        -20.3778  12.8949  26.1566 H              1 <1>                0.0000
     21 H21        -20.4777  16.1978  28.5916 H              1 <1>                0.0000
     22 H22        -19.7110  16.2238  27.0275 H              1 <1>                0.0000
     23 H23        -22.0073  17.2322  26.9560 H              1 <1>                0.0000
     24 H24        -21.9568  15.8107  25.9262 H              1 <1>                0.0000
     25 H25        -22.7071  15.7185  27.5189 H              1 <1>                0.0000
     26 H26        -17.8420  13.5331  28.4916 H              1 <1>                0.0000
     27 H27        -16.2143  12.8519  30.1290 H              1 <1>                0.0000
     28 H28        -16.6235  12.9657  31.8414 H              1 <1>                0.0000
     29 H29        -16.8681  11.4446  30.9727 H              1 <1>                0.0000
     30 H30        -23.5908  13.7293  31.4636 H              1 <1>                0.0000
     31 ****       -21.2880  14.0528  27.6222 LP             1 <1>                0.0000
     32 ****       -18.9836  12.4662  32.4055 LP             1 <1>                0.0000
     33 ****       -21.6766  12.8578  32.9289 LP             1 <1>                0.0000
     34 ****       -22.7343  14.3161  29.1682 LP             1 <1>                0.0000
@<TRIPOS>BOND
    1    1    2 1     
    2    1   16 1     
    3    1   17 1     
    4    1   18 1     
    5    2    3 1     
    6    2   19 1     
    7    2   20 1     
    8    3    4 1     
    9    3    6 1     
   10    4    5 1     
   11    4   21 1     
   12    4   22 1     
   13    5   23 1     
   14    5   24 1     
   15    5   25 1     
   16    6   15 1     
   17    6    7 2     
   18    7    8 1     
   19    7   26 1     
   20    8    9 1     
   21    8   10 2     
   22    9   27 1     
   23    9   28 1     
   24    9   29 1     
   25   10   11 1     
   26   11   15 1     
   27   11   12 2     
   28   12   13 1     
   29   13   14 2     
   30   13   30 1     
   31   14   15 1     
   32    3   31 1     
   33   10   32 1     
   34   12   33 1     
   35   14   34 1     
@<TRIPOS>SUBSTRUCTURE
      1 ****           1
@<TRIPOS>SET
LONE_PAIRS      STATIC     ATOMS    <user>   **** ""
4 31 32 33 34
ATOM$BLUE        STATIC     ATOMS    COLORGROUP SYSTEM
4 31 32 33 34
@<TRIPOS>COMMENT
> <Gold.Version>
5.7.1

> <Gold.Id.Protein>
5ENC|5ENC_protein|mol2

> <Gold.Protein.RotatedTorsions>
[ 1501  701  700  697 ] final -105.08 input   60.00 | X-H torsion
[ 1497  695  694  692 ] final  161.07 input   60.00 | X-H torsion
[ 1251  358  357  355 ] final  -26.78 input   60.00 | X-H torsion
[ 1470  669  668  665 ] final   39.72 input   60.00 | X-H torsion

> <Gold.Protein.ActiveResidues>
 PRO28   PHE29   GLN31   PRO32   VAL33   TYR38   TYR41   PRO48   MET49   ASP50  
 ILE76   ASN79   SER80   TYR83   THR84   ILE91  

> <Gold.Protein.RotatedAtoms>
  -16.3442    9.1452   24.6960 H   0  0  0  0  0  0  0  0  0  0  0  0  # atno 1251 bound_to 358 
  -21.6616   11.0608   22.8743 H   0  0  0  0  0  0  0  0  0  0  0  0  # atno 1470 bound_to 669 
  -19.1657   10.8018   32.1960 H   0  0  0  0  0  0  0  0  0  0  0  0  # atno 1497 bound_to 695 
  -23.3808   11.3283   27.0614 H   0  0  0  0  0  0  0  0  0  0  0  0  # atno 1501 bound_to 701 
  -22.3750   11.2498   25.7846 LP  0  0  0  0  0  0  0  0  0  0  0  0  # atno 2046 bound_to 701 
  -22.4941    9.9867   26.8127 LP  0  0  0  0  0  0  0  0  0  0  0  0  # atno 2047 bound_to 701 
  -18.1912    9.5275   32.4691 LP  0  0  0  0  0  0  0  0  0  0  0  0  # atno 2052 bound_to 695 
  -19.8004    9.3956   32.7136 LP  0  0  0  0  0  0  0  0  0  0  0  0  # atno 2053 bound_to 695 
  -14.7944    8.7616   24.3812 LP  0  0  0  0  0  0  0  0  0  0  0  0  # atno 2056 bound_to 358 
  -15.2423   10.3272   24.5041 LP  0  0  0  0  0  0  0  0  0  0  0  0  # atno 2057 bound_to 358 

> <Gold.Protein.RotatedWaterAtoms>
  -17.7040   10.2320   24.0390 O.3 0  0  0  0  0  0  0  0  0  0  0  0  # atno 1    bound_to 2    3    AM1 ON 
  -17.5942   10.5244   23.0964 H   0  0  0  0  0  0  0  0  0  0  0  0  # atno 2    bound_to 1    AM1 ON 
  -18.6677   10.0876   24.2307 H   0  0  0  0  0  0  0  0  0  0  0  0  # atno 3    bound_to 1    AM1 ON 
  -17.3444   10.9367   24.6506 LP  0  0  0  0  0  0  0  0  0  0  0  0  # atno 4    bound_to 1    AM1 ON 
  -17.2038    9.3782   24.1836 LP  0  0  0  0  0  0  0  0  0  0  0  0  # atno 5    bound_to 1    AM1 ON 
  -13.7450   10.2720   23.0540 O.3 0  0  0  0  0  0  0  0  0  0  0  0  # atno 1    bound_to 2    3    AM2 ON 
  -14.4802   10.4830   23.6873 H   0  0  0  0  0  0  0  0  0  0  0  0  # atno 2    bound_to 1    AM2 ON 
  -13.5763   11.0569   22.4694 H   0  0  0  0  0  0  0  0  0  0  0  0  # atno 3    bound_to 1    AM2 ON 
  -14.0046    9.4870   22.4915 LP  0  0  0  0  0  0  0  0  0  0  0  0  # atno 4    bound_to 1    AM2 ON 
  -12.9150   10.0542   23.5674 LP  0  0  0  0  0  0  0  0  0  0  0  0  # atno 5    bound_to 1    AM2 ON 
  -21.1690   11.6250   24.3940 O.3 0  0  0  0  0  0  0  0  0  0  0  0  # atno 1    bound_to 2    3    AM3 ON 
  -21.5132   11.3384   25.2803 H   0  0  0  0  0  0  0  0  0  0  0  0  # atno 2    bound_to 1    AM3 ON 
  -20.5434   12.3871   24.5125 H   0  0  0  0  0  0  0  0  0  0  0  0  # atno 3    bound_to 1    AM3 ON 
  -21.9337   11.9084   23.8152 LP  0  0  0  0  0  0  0  0  0  0  0  0  # atno 4    bound_to 1    AM3 ON 
  -20.6877   10.8629   23.9610 LP  0  0  0  0  0  0  0  0  0  0  0  0  # atno 5    bound_to 1    AM3 ON 
  -14.6550   15.1580   23.4130 O.3 0  0  0  0  0  0  0  0  0  0  0  0  # atno 1    bound_to 2    3    AM4 ON 
  -15.4441   15.7018   23.6730 H   0  0  0  0  0  0  0  0  0  0  0  0  # atno 2    bound_to 1    AM4 ON 
  -13.8249   15.6186   23.7047 H   0  0  0  0  0  0  0  0  0  0  0  0  # atno 3    bound_to 1    AM4 ON 
  -14.6415   15.0439   22.4196 LP  0  0  0  0  0  0  0  0  0  0  0  0  # atno 4    bound_to 1    AM4 ON 
  -14.7097   14.2606   23.8508 LP  0  0  0  0  0  0  0  0  0  0  0  0  # atno 5    bound_to 1    AM4 ON 
  -23.6820   12.7820   28.0340 O.3 0  0  0  0  0  0  0  0  0  0  0  0  # atno 1    bound_to 2    3    AM5 ON 
  -23.0602   13.2912   28.6172 H   0  0  0  0  0  0  0  0  0  0  0  0  # atno 2    bound_to 1    AM5 ON 
  -24.5185   13.3022   27.9081 H   0  0  0  0  0  0  0  0  0  0  0  0  # atno 3    bound_to 1    AM5 ON 
  -23.8967   11.9040   28.4619 LP  0  0  0  0  0  0  0  0  0  0  0  0  # atno 4    bound_to 1    AM5 ON 
  -23.2512   12.6234   27.1456 LP  0  0  0  0  0  0  0  0  0  0  0  0  # atno 5    bound_to 1    AM5 ON 
  -16.9520   11.2350   21.5950 O.3 0  0  0  0  0  0  0  0  0  0  0  0  # atno 1    bound_to 2    3    AM6 ON 
  -17.0947   10.8841   20.6771 H   0  0  0  0  0  0  0  0  0  0  0  0  # atno 2    bound_to 1    AM6 ON 
  -16.3821   12.0473   21.5540 H   0  0  0  0  0  0  0  0  0  0  0  0  # atno 3    bound_to 1    AM6 ON 
  -16.4996   10.5382   22.1517 LP  0  0  0  0  0  0  0  0  0  0  0  0  # atno 4    bound_to 1    AM6 ON 
  -17.8345   11.4672   22.0040 LP  0  0  0  0  0  0  0  0  0  0  0  0  # atno 5    bound_to 1    AM6 ON 
  -14.9200   12.9840   21.7870 O.3 0  0  0  0  0  0  0  0  0  0  0  0  # atno 1    bound_to 2    3    AM7 ON 
  -14.0201   12.5997   21.6180 H   0  0  0  0  0  0  0  0  0  0  0  0  # atno 2    bound_to 1    AM7 ON 
  -14.8311   13.8044   22.3396 H   0  0  0  0  0  0  0  0  0  0  0  0  # atno 3    bound_to 1    AM7 ON 
  -15.4826   12.3146   22.2722 LP  0  0  0  0  0  0  0  0  0  0  0  0  # atno 4    bound_to 1    AM7 ON 
  -15.3531   13.2143   20.9156 LP  0  0  0  0  0  0  0  0  0  0  0  0  # atno 5    bound_to 1    AM7 ON 

> <Gold.Score>
     Score         DG    S(hbond)    S(metal)    S(lipo)     H(rot)  DE(clash)    DE(int)    S(bar)      intcor
     41.26     -41.63      13.05        0.00      88.20       1.46       0.22       0.15      14.00       0.11

> <Gold.Chemscore.Fitness>
41.2634

> <Gold.Chemscore.DG>
-41.6307

> <Gold.Chemscore.ZeroCoef>
-5.4800

> <Gold.Chemscore.Hbond>
13.0453

> <Gold.Chemscore.Metal>
0.0000

> <Gold.Chemscore.Lipo>
88.1974

> <Gold.Chemscore.Internal_Hbond>
0.0000

> <Gold.Chemscore.DEClash>
0.2177

> <Gold.Chemscore.DEInternal>
0.1496

> <Gold.Chemscore.Rot>
1.4609

> <Gold.Chemscore.Internal.Correction>
0.1117

> <Gold.Chemscore.SBar>
14.0000

> <Gold.Chemscore.Hbonds>
donor molecule, donor type, donor heavy atom, donor atom, acceptor molecule, acceptor atom, score
     AM1  H     1     2      AM6     1  0.99
     AM2  H     1     2       P1   358  0.61
     AM2  H     1     3       P1   419  0.85
     AM3  H     1     2       P1   701  0.75
     AM4  H     1     2       P1   238  0.98
     AM4  H     1     3       P1   267  0.99
     AM5  H     1     2       L1    14  0.88
     AM6  H     1     2       P1   634  0.99
     AM6  H     1     3      AM7     1  0.97
     AM7  H     1     2       P1   419  0.99
     AM7  H     1     3      AM4     1  0.98
      P1  H   701  1501      AM5     1  0.97
      P1  H   695  1497       L1    10  0.45
      P1  H   358  1251      AM1     1  0.49
      P1  H   669  1470      AM3     1  0.98
      P1  H   663  1465      AM2     1  0.16

> <Gold.Chemscore.Hbond.Weighted>
-43.5715

> <Gold.Chemscore.Metal.Weighted>
-0.0000

> <Gold.Chemscore.Lipo.Weighted>
-10.3191

> <Gold.Chemscore.Internal_Hbond.Weighted>
0.0000

> <Gold.Chemscore.DEClash.Weighted>
0.2177

> <Gold.Chemscore.DEInternal.Weighted>
0.1496

> <Gold.Chemscore.Rot.Weighted>
3.7398

> <Gold.Chemscore.Internal.Correction.Weighted>
0.1117

