#       Name:                F488-34CA7E623D6BA15C-9FC0D684691A43D6-NMX
#       Creating user name   iorga
#       Creation time:       Wed Nov 27 12:28:38 2019


#       File generated by GOLD software.
#

@<TRIPOS>MOLECULE
F488-34CA7E623D6BA15C-9FC0D684691A43D6-NMX|ligands_smiles_3D-hash|mol2|503|dock30
    43    44     1
SMALL
NO_CHARGES


@<TRIPOS>ATOM
      1 C1         -17.1164  13.6800  24.5701 C.3            1 <1>                0.0000
      2 C2         -17.7192  15.2891  26.3420 C.3            1 <1>                0.0000
      3 C3         -18.7295  16.3678  26.7743 C.3            1 <1>                0.0000
      4 N4         -20.0842  15.7960  26.7448 N.am           1 <1>                0.0000
      5 C5         -20.4511  15.3792  25.3874 C.3            1 <1>                0.0000
      6 C6         -19.4850  14.2724  24.9251 C.3            1 <1>                0.0000
      7 C7         -20.9576  15.7714  27.7808 C.2            1 <1>                0.0000
      8 O8         -22.1014  15.3293  27.6644 O.2            1 <1>                0.0000
      9 C9         -20.5129  16.3229  29.1432 C.3            1 <1>                0.0000
     10 O10        -20.7214  15.3373  30.1479 O.3            1 <1>                0.0000
     11 C11        -19.6971  14.4550  30.4172 C.ar           1 <1>                0.0000
     12 C12        -18.8131  14.1588  29.3595 C.ar           1 <1>                0.0000
     13 C13        -17.7425  13.2630  29.5433 C.ar           1 <1>                0.0000
     14 C14        -17.5411  12.6495  30.7951 C.ar           1 <1>                0.0000
     15 C15        -16.3899  11.6838  30.9870 C.3            1 <1>                0.0000
     16 C16        -18.4156  12.9415  31.8608 C.ar           1 <1>                0.0000
     17 C17        -19.4863  13.8378  31.6762 C.ar           1 <1>                0.0000
     18 H18        -17.1556  12.8102  25.2273 H              1 <1>                0.0000
     19 H19        -17.3447  13.3533  23.5550 H              1 <1>                0.0000
     20 H20        -16.0968  14.0664  24.5738 H              1 <1>                0.0000
     21 H21        -16.7163  15.7179  26.3017 H              1 <1>                0.0000
     22 H22        -17.6930  14.4877  27.0812 H              1 <1>                0.0000
     23 H23        -18.6143  17.2534  26.1512 H              1 <1>                0.0000
     24 H24        -18.5066  16.6990  27.7897 H              1 <1>                0.0000
     25 H25        -21.4763  15.0057  25.3916 H              1 <1>                0.0000
     26 H26        -20.4385  16.2009  24.6700 H              1 <1>                0.0000
     27 H27        -19.7142  13.9900  23.8961 H              1 <1>                0.0000
     28 H28        -19.6232  13.3807  25.5376 H              1 <1>                0.0000
     29 H29        -21.0983  17.2149  29.3727 H              1 <1>                0.0000
     30 H30        -19.4556  16.5888  29.0963 H              1 <1>                0.0000
     31 H31        -18.9592  14.6224  28.3950 H              1 <1>                0.0000
     32 H32        -17.0774  13.0477  28.7197 H              1 <1>                0.0000
     33 H33        -16.3960  11.2514  31.9881 H              1 <1>                0.0000
     34 H34        -16.4549  10.8694  30.2651 H              1 <1>                0.0000
     35 H35        -15.4386  12.1962  30.8426 H              1 <1>                0.0000
     36 H36        -18.2701  12.4785  32.8260 H              1 <1>                0.0000
     37 H37        -20.1326  14.0348  32.5179 H              1 <1>                0.0000
     38 N38        -18.0702  14.7203  25.0095 N.4            1 <1>                0.0000
     39 H39        -17.9806  15.4825  24.3526 H              1 <1>                0.0000
     40 ****       -22.4123  14.9727  26.7834 LP             1 <1>                0.0000
     41 ****       -22.7190  15.3270  28.4509 LP             1 <1>                0.0000
     42 ****       -21.5148  14.7951  29.8713 LP             1 <1>                0.0000
     43 ****       -20.9280  15.8203  30.9988 LP             1 <1>                0.0000
@<TRIPOS>BOND
    1    1   18 1     
    2    1   19 1     
    3    1   20 1     
    4    1   38 1     
    5    2    3 1     
    6    2   21 1     
    7    2   22 1     
    8    2   38 1     
    9    3    4 1     
   10    3   23 1     
   11    3   24 1     
   12    4    5 1     
   13    4    7 am    
   14    5    6 1     
   15    5   25 1     
   16    5   26 1     
   17    6   27 1     
   18    6   28 1     
   19    6   38 1     
   20    7    8 2     
   21    7    9 1     
   22    9   10 1     
   23    9   29 1     
   24    9   30 1     
   25   10   11 1     
   26   11   17 ar    
   27   11   12 ar    
   28   12   13 ar    
   29   12   31 1     
   30   13   14 ar    
   31   13   32 1     
   32   14   15 1     
   33   14   16 ar    
   34   15   33 1     
   35   15   34 1     
   36   15   35 1     
   37   16   17 ar    
   38   16   36 1     
   39   17   37 1     
   40   38   39 1     
   41    8   40 1     
   42    8   41 1     
   43   10   42 1     
   44   10   43 1     
@<TRIPOS>SUBSTRUCTURE
      1 ****           1
@<TRIPOS>SET
LONE_PAIRS      STATIC     ATOMS    <user>   **** ""
4 40 41 42 43
DONOR_HYDROGENS      STATIC     ATOMS    <user>   **** ""
1 39
ATOM$BLUE        STATIC     ATOMS    COLORGROUP SYSTEM
4 40 41 42 43
ATOM$RED        STATIC     ATOMS    COLORGROUP SYSTEM
1 39
@<TRIPOS>COMMENT
> <Gold.Version>
5.7.1

> <Gold.Id.Protein>
5ENC|5ENC_protein|mol2

> <Gold.Protein.RotatedTorsions>
[ 1501  701  700  697 ] final   64.79 input   60.00 | X-H torsion
[ 1497  695  694  692 ] final -121.92 input   60.00 | X-H torsion
[ 1251  358  357  355 ] final   -1.76 input   60.00 | X-H torsion
[ 1470  669  668  665 ] final   27.26 input   60.00 | X-H torsion

> <Gold.Protein.ActiveResidues>
 PRO28   PHE29   GLN31   PRO32   VAL33   TYR38   TYR41   PRO48   MET49   ASP50  
 ILE76   ASN79   SER80   TYR83   THR84   ILE91  

> <Gold.Protein.RotatedAtoms>
  -16.3700    9.5497   24.7102 H   0  0  0  0  0  0  0  0  0  0  0  0  # atno 1251 bound_to 358 
  -21.7769   10.8934   22.8675 H   0  0  0  0  0  0  0  0  0  0  0  0  # atno 1470 bound_to 669 
  -19.9772   10.0367   32.5353 H   0  0  0  0  0  0  0  0  0  0  0  0  # atno 1497 bound_to 695 
  -22.1462   10.2626   26.1566 H   0  0  0  0  0  0  0  0  0  0  0  0  # atno 1501 bound_to 701 
  -23.2112   10.6057   27.3382 LP  0  0  0  0  0  0  0  0  0  0  0  0  # atno 2046 bound_to 701 
  -22.9012   11.7040   26.1702 LP  0  0  0  0  0  0  0  0  0  0  0  0  # atno 2047 bound_to 701 
  -18.5022   10.6196   32.1708 LP  0  0  0  0  0  0  0  0  0  0  0  0  # atno 2052 bound_to 695 
  -18.6721    9.0741   32.6701 LP  0  0  0  0  0  0  0  0  0  0  0  0  # atno 2053 bound_to 695 
  -15.1277    8.5335   24.4415 LP  0  0  0  0  0  0  0  0  0  0  0  0  # atno 2056 bound_to 358 
  -14.8829   10.1480   24.4297 LP  0  0  0  0  0  0  0  0  0  0  0  0  # atno 2057 bound_to 358 

> <Gold.Protein.RotatedWaterAtoms>
  -17.7040   10.2320   24.0390 O.3 0  0  0  0  0  0  0  0  0  0  0  0  # atno 1    bound_to 2    3    AM1 ON 
  -17.7200   10.6275   23.1283 H   0  0  0  0  0  0  0  0  0  0  0  0  # atno 2    bound_to 1    AM1 ON 
  -18.5773   10.3911   24.4843 H   0  0  0  0  0  0  0  0  0  0  0  0  # atno 3    bound_to 1    AM1 ON 
  -16.9744   10.6574   24.5744 LP  0  0  0  0  0  0  0  0  0  0  0  0  # atno 4    bound_to 1    AM1 ON 
  -17.5382    9.2481   23.9723 LP  0  0  0  0  0  0  0  0  0  0  0  0  # atno 5    bound_to 1    AM1 ON 
  -13.7450   10.2720   23.0540 O.3 0  0  0  0  0  0  0  0  0  0  0  0  # atno 1    bound_to 2    3    AM2 ON 
  -14.2093    9.7199   23.7364 H   0  0  0  0  0  0  0  0  0  0  0  0  # atno 2    bound_to 1    AM2 ON 
  -14.2001   11.1511   22.9739 H   0  0  0  0  0  0  0  0  0  0  0  0  # atno 3    bound_to 1    AM2 ON 
  -13.7700    9.8020   22.1717 LP  0  0  0  0  0  0  0  0  0  0  0  0  # atno 4    bound_to 1    AM2 ON 
  -12.7942   10.4128   23.3298 LP  0  0  0  0  0  0  0  0  0  0  0  0  # atno 5    bound_to 1    AM2 ON 
  -21.1690   11.6250   24.3940 O.3 0  0  0  0  0  0  0  0  0  0  0  0  # atno 1    bound_to 2    3    AM3 OFF
  -21.2017   12.2911   23.6582 H   0  0  0  0  0  0  0  0  0  0  0  0  # atno 2    bound_to 1    AM3 OFF
  -20.2681   11.6373   24.8118 H   0  0  0  0  0  0  0  0  0  0  0  0  # atno 3    bound_to 1    AM3 OFF
  -21.3538   10.7134   24.0269 LP  0  0  0  0  0  0  0  0  0  0  0  0  # atno 4    bound_to 1    AM3 OFF
  -21.8584   11.8535   25.0814 LP  0  0  0  0  0  0  0  0  0  0  0  0  # atno 5    bound_to 1    AM3 OFF
  -14.6550   15.1580   23.4130 O.3 0  0  0  0  0  0  0  0  0  0  0  0  # atno 1    bound_to 2    3    AM4 ON 
  -13.7905   15.6397   23.4951 H   0  0  0  0  0  0  0  0  0  0  0  0  # atno 2    bound_to 1    AM4 ON 
  -15.4015   15.7807   23.6163 H   0  0  0  0  0  0  0  0  0  0  0  0  # atno 3    bound_to 1    AM4 ON 
  -14.6733   14.3938   24.0578 LP  0  0  0  0  0  0  0  0  0  0  0  0  # atno 4    bound_to 1    AM4 ON 
  -14.7556   14.8101   22.4809 LP  0  0  0  0  0  0  0  0  0  0  0  0  # atno 5    bound_to 1    AM4 ON 
  -23.6820   12.7820   28.0340 O.3 0  0  0  0  0  0  0  0  0  0  0  0  # atno 1    bound_to 2    3    AM5 ON 
  -23.1497   13.6096   27.9009 H   0  0  0  0  0  0  0  0  0  0  0  0  # atno 2    bound_to 1    AM5 ON 
  -23.2546   12.0312   27.5442 H   0  0  0  0  0  0  0  0  0  0  0  0  # atno 3    bound_to 1    AM5 ON 
  -24.6090   12.9223   27.6861 LP  0  0  0  0  0  0  0  0  0  0  0  0  # atno 4    bound_to 1    AM5 ON 
  -23.7214   12.5643   29.0092 LP  0  0  0  0  0  0  0  0  0  0  0  0  # atno 5    bound_to 1    AM5 ON 
  -16.9520   11.2350   21.5950 O.3 0  0  0  0  0  0  0  0  0  0  0  0  # atno 1    bound_to 2    3    AM6 ON 
  -17.1208   10.8443   20.6978 H   0  0  0  0  0  0  0  0  0  0  0  0  # atno 2    bound_to 1    AM6 ON 
  -16.2857   11.9673   21.5171 H   0  0  0  0  0  0  0  0  0  0  0  0  # atno 3    bound_to 1    AM6 ON 
  -16.5988   10.5265   22.2060 LP  0  0  0  0  0  0  0  0  0  0  0  0  # atno 4    bound_to 1    AM6 ON 
  -17.8061   11.5996   21.9659 LP  0  0  0  0  0  0  0  0  0  0  0  0  # atno 5    bound_to 1    AM6 ON 
  -14.9200   12.9840   21.7870 O.3 0  0  0  0  0  0  0  0  0  0  0  0  # atno 1    bound_to 2    3    AM7 ON 
  -14.8508   13.6513   22.5191 H   0  0  0  0  0  0  0  0  0  0  0  0  # atno 2    bound_to 1    AM7 ON 
  -14.0103   12.7536   21.4621 H   0  0  0  0  0  0  0  0  0  0  0  0  # atno 3    bound_to 1    AM7 ON 
  -15.4551   13.3686   21.0349 LP  0  0  0  0  0  0  0  0  0  0  0  0  # atno 4    bound_to 1    AM7 ON 
  -15.3706   12.1594   22.1290 LP  0  0  0  0  0  0  0  0  0  0  0  0  # atno 5    bound_to 1    AM7 ON 

> <Gold.Score>
     Score         DG    S(hbond)    S(metal)    S(lipo)     H(rot)  DE(clash)    DE(int)    S(bar)      intcor
     49.23     -50.84      12.47        0.00     161.93       1.27       1.02       0.59      12.00       0.45

> <Gold.Chemscore.Fitness>
49.2335

> <Gold.Chemscore.DG>
-50.8423

> <Gold.Chemscore.ZeroCoef>
-5.4800

> <Gold.Chemscore.Hbond>
12.4750

> <Gold.Chemscore.Metal>
0.0000

> <Gold.Chemscore.Lipo>
161.9315

> <Gold.Chemscore.Internal_Hbond>
0.0000

> <Gold.Chemscore.DEClash>
1.0153

> <Gold.Chemscore.DEInternal>
0.5935

> <Gold.Chemscore.Rot>
1.2696

> <Gold.Chemscore.Internal.Correction>
0.4519

> <Gold.Chemscore.SBar>
12.0000

> <Gold.Chemscore.Hbonds>
donor molecule, donor type, donor heavy atom, donor atom, acceptor molecule, acceptor atom, score
      L1  H    38    39       P1   238  0.81
     AM1  H     1     2      AM6     1  0.97
     AM2  H     1     2       P1   358  0.95
     AM4  H     1     2       P1   267  1.00
     AM4  H     1     3       P1   238  1.00
     AM5  H     1     2       L1     8  0.99
     AM5  H     1     3       P1   701  0.99
     AM6  H     1     2       P1   634  1.00
     AM6  H     1     3      AM7     1  0.99
     AM7  H     1     2      AM4     1  0.99
     AM7  H     1     3       P1   419  0.99
      P1  H   358  1251      AM1     1  0.95
      P1  H   416  1258      AM2     1  0.86

> <Gold.Chemscore.Hbond.Weighted>
-41.6664

> <Gold.Chemscore.Metal.Weighted>
-0.0000

> <Gold.Chemscore.Lipo.Weighted>
-18.9460

> <Gold.Chemscore.Internal_Hbond.Weighted>
0.0000

> <Gold.Chemscore.DEClash.Weighted>
1.0153

> <Gold.Chemscore.DEInternal.Weighted>
0.5935

> <Gold.Chemscore.Rot.Weighted>
3.2500

> <Gold.Chemscore.Internal.Correction.Weighted>
0.4519

