#       Name:                F199-2B51402ECB358934-2B51402ECB358934-NMX
#       Creating user name   iorga
#       Creation time:       Wed Nov 27 15:16:08 2019


#       File generated by GOLD software.
#

@<TRIPOS>MOLECULE
F199-2B51402ECB358934-2B51402ECB358934-NMX|ligands_smiles_3D-hash|mol2|206|dock16
    31    32     1
SMALL
NO_CHARGES


@<TRIPOS>ATOM
      1 C1         -17.4621  12.4120  30.6166 C.3            1 <1>                0.0000
      2 C2         -17.6342  13.6123  29.7503 C.2            1 <1>                0.0000
      3 C3         -16.9139  14.1180  28.7058 C.2            1 <1>                0.0000
      4 C4         -17.6376  15.2865  28.3326 C.2            1 <1>                0.0000
      5 N5         -18.7051  15.4662  29.0973 N.2            1 <1>                0.0000
      6 O6         -18.7101  14.4010  30.0048 O.3            1 <1>                0.0000
      7 C7         -17.1747  16.1540  27.1988 C.2            1 <1>                0.0000
      8 O8         -16.5329  17.1826  27.4152 O.2            1 <1>                0.0000
      9 N9         -17.5142  15.7041  25.9772 N.am           1 <1>                0.0000
     10 C10        -18.2395  14.5281  25.6595 C.2            1 <1>                0.0000
     11 C11        -17.7518  13.2061  25.8287 C.2            1 <1>                0.0000
     12 N12        -18.6512  12.3114  25.4482 N.2            1 <1>                0.0000
     13 N13        -19.7164  13.0395  25.0338 N.pl3          1 <1>                0.0000
     14 C14        -20.8939  12.3556  24.5439 C.3            1 <1>                0.0000
     15 C15        -19.5006  14.3982  25.1499 C.2            1 <1>                0.0000
     16 H16        -16.5613  11.8615  30.3451 H              1 <1>                0.0000
     17 H17        -17.3793  12.6999  31.6646 H              1 <1>                0.0000
     18 H18        -18.3131  11.7380  30.5163 H              1 <1>                0.0000
     19 H19        -16.0101  13.7121  28.2755 H              1 <1>                0.0000
     20 H20        -17.2194  16.2686  25.1933 H              1 <1>                0.0000
     21 H21        -16.7965  12.8724  26.2062 H              1 <1>                0.0000
     22 H22        -21.6404  13.0811  24.2195 H              1 <1>                0.0000
     23 H23        -20.6271  11.7201  23.6990 H              1 <1>                0.0000
     24 H24        -21.3193  11.7392  25.3364 H              1 <1>                0.0000
     25 H25        -20.2472  15.1245  24.8653 H              1 <1>                0.0000
     26 ****       -19.3705  16.2103  29.0379 LP             1 <1>                0.0000
     27 ****       -18.6563  14.7537  30.9390 LP             1 <1>                0.0000
     28 ****       -19.5506  13.8700  29.8969 LP             1 <1>                0.0000
     29 ****       -16.3149  17.4477  28.3544 LP             1 <1>                0.0000
     30 ****       -16.2297  17.7527  26.6516 LP             1 <1>                0.0000
     31 ****       -18.5633  11.3154  25.4635 LP             1 <1>                0.0000
@<TRIPOS>BOND
    1    1    2 1     
    2    1   16 1     
    3    1   17 1     
    4    1   18 1     
    5    2    6 1     
    6    2    3 2     
    7    3    4 1     
    8    3   19 1     
    9    4    5 2     
   10    4    7 1     
   11    5    6 1     
   12    7    8 2     
   13    7    9 am    
   14    9   10 1     
   15    9   20 1     
   16   10   15 2     
   17   10   11 1     
   18   11   12 2     
   19   11   21 1     
   20   12   13 1     
   21   13   14 1     
   22   13   15 1     
   23   14   22 1     
   24   14   23 1     
   25   14   24 1     
   26   15   25 1     
   27    5   26 1     
   28    6   27 1     
   29    6   28 1     
   30    8   29 1     
   31    8   30 1     
   32   12   31 1     
@<TRIPOS>SUBSTRUCTURE
      1 ****           1
@<TRIPOS>SET
LONE_PAIRS      STATIC     ATOMS    <user>   **** ""
6 26 27 28 29 30 31
DONOR_HYDROGENS      STATIC     ATOMS    <user>   **** ""
1 20
ATOM$BLUE        STATIC     ATOMS    COLORGROUP SYSTEM
6 26 27 28 29 30 31
ATOM$RED        STATIC     ATOMS    COLORGROUP SYSTEM
1 20
@<TRIPOS>COMMENT
> <Gold.Version>
5.7.1

> <Gold.Id.Protein>
5ENC|5ENC_protein|mol2

> <Gold.Protein.RotatedTorsions>
[ 1501  701  700  697 ] final -113.90 input   60.00 | X-H torsion
[ 1497  695  694  692 ] final    9.05 input   60.00 | X-H torsion
[ 1251  358  357  355 ] final   -4.10 input   60.00 | X-H torsion
[ 1470  669  668  665 ] final  116.51 input   60.00 | X-H torsion

> <Gold.Protein.ActiveResidues>
 PRO28   PHE29   GLN31   PRO32   VAL33   TYR38   TYR41   PRO48   MET49   ASP50  
 ILE76   ASN79   SER80   TYR83   THR84   ILE91  

> <Gold.Protein.RotatedAtoms>
  -16.3750    9.5118   24.7103 H   0  0  0  0  0  0  0  0  0  0  0  0  # atno 1251 bound_to 358 
  -21.4437   11.9456   22.1517 H   0  0  0  0  0  0  0  0  0  0  0  0  # atno 1470 bound_to 669 
  -18.5204    9.1579   32.6226 H   0  0  0  0  0  0  0  0  0  0  0  0  # atno 1497 bound_to 695 
  -23.3629   11.4338   26.9650 H   0  0  0  0  0  0  0  0  0  0  0  0  # atno 1501 bound_to 701 
  -22.3007   11.1260   25.7712 LP  0  0  0  0  0  0  0  0  0  0  0  0  # atno 2046 bound_to 701 
  -22.5864   10.0043   26.9231 LP  0  0  0  0  0  0  0  0  0  0  0  0  # atno 2047 bound_to 701 
  -19.9851    9.8663   32.5914 LP  0  0  0  0  0  0  0  0  0  0  0  0  # atno 2052 bound_to 695 
  -18.6563   10.7125   32.1615 LP  0  0  0  0  0  0  0  0  0  0  0  0  # atno 2053 bound_to 695 
  -15.0928    8.5483   24.4349 LP  0  0  0  0  0  0  0  0  0  0  0  0  # atno 2056 bound_to 358 
  -14.9128   10.1713   24.4361 LP  0  0  0  0  0  0  0  0  0  0  0  0  # atno 2057 bound_to 358 

> <Gold.Protein.RotatedWaterAtoms>
  -17.7040   10.2320   24.0390 O.3 0  0  0  0  0  0  0  0  0  0  0  0  # atno 1    bound_to 2    3    AM1 ON 
  -17.6577   10.5410   23.0964 H   0  0  0  0  0  0  0  0  0  0  0  0  # atno 2    bound_to 1    AM1 ON 
  -18.2732   10.8541   24.5637 H   0  0  0  0  0  0  0  0  0  0  0  0  # atno 3    bound_to 1    AM1 ON 
  -16.7835   10.2130   24.4292 LP  0  0  0  0  0  0  0  0  0  0  0  0  # atno 4    bound_to 1    AM1 ON 
  -18.0980    9.3134   24.0697 LP  0  0  0  0  0  0  0  0  0  0  0  0  # atno 5    bound_to 1    AM1 ON 
  -13.7450   10.2720   23.0540 O.3 0  0  0  0  0  0  0  0  0  0  0  0  # atno 1    bound_to 2    3    AM2 ON 
  -14.1670    9.7140   23.7587 H   0  0  0  0  0  0  0  0  0  0  0  0  # atno 2    bound_to 1    AM2 ON 
  -14.0956   11.1994   23.1119 H   0  0  0  0  0  0  0  0  0  0  0  0  # atno 3    bound_to 1    AM2 ON 
  -13.9583    9.8906   22.1546 LP  0  0  0  0  0  0  0  0  0  0  0  0  # atno 4    bound_to 1    AM2 ON 
  -12.7537   10.2816   23.1854 LP  0  0  0  0  0  0  0  0  0  0  0  0  # atno 5    bound_to 1    AM2 ON 
  -21.1690   11.6250   24.3940 O.3 0  0  0  0  0  0  0  0  0  0  0  0  # atno 1    bound_to 2    3    AM3 OFF
  -21.2662   11.6202   23.4058 H   0  0  0  0  0  0  0  0  0  0  0  0  # atno 2    bound_to 1    AM3 OFF
  -21.4433   10.7426   24.7579 H   0  0  0  0  0  0  0  0  0  0  0  0  # atno 3    bound_to 1    AM3 OFF
  -21.7492   12.3408   24.7826 LP  0  0  0  0  0  0  0  0  0  0  0  0  # atno 4    bound_to 1    AM3 OFF
  -20.2147   11.8025   24.6342 LP  0  0  0  0  0  0  0  0  0  0  0  0  # atno 5    bound_to 1    AM3 OFF
  -14.6550   15.1580   23.4130 O.3 0  0  0  0  0  0  0  0  0  0  0  0  # atno 1    bound_to 2    3    AM4 ON 
  -15.4140   15.7765   23.5785 H   0  0  0  0  0  0  0  0  0  0  0  0  # atno 2    bound_to 1    AM4 ON 
  -13.8012   15.6161   23.6310 H   0  0  0  0  0  0  0  0  0  0  0  0  # atno 3    bound_to 1    AM4 ON 
  -14.6509   14.8854   22.4509 LP  0  0  0  0  0  0  0  0  0  0  0  0  # atno 4    bound_to 1    AM4 ON 
  -14.7545   14.3466   23.9890 LP  0  0  0  0  0  0  0  0  0  0  0  0  # atno 5    bound_to 1    AM4 ON 
  -23.6820   12.7820   28.0340 O.3 0  0  0  0  0  0  0  0  0  0  0  0  # atno 1    bound_to 2    3    AM5 ON 
  -23.6834   12.7863   29.0270 H   0  0  0  0  0  0  0  0  0  0  0  0  # atno 2    bound_to 1    AM5 ON 
  -23.8573   13.7002   27.6987 H   0  0  0  0  0  0  0  0  0  0  0  0  # atno 3    bound_to 1    AM5 ON 
  -24.3950   12.1642   27.7023 LP  0  0  0  0  0  0  0  0  0  0  0  0  # atno 4    bound_to 1    AM5 ON 
  -22.7910   12.4708   27.7033 LP  0  0  0  0  0  0  0  0  0  0  0  0  # atno 5    bound_to 1    AM5 ON 
  -16.9520   11.2350   21.5950 O.3 0  0  0  0  0  0  0  0  0  0  0  0  # atno 1    bound_to 2    3    AM6 ON 
  -16.3142   11.9956   21.5692 H   0  0  0  0  0  0  0  0  0  0  0  0  # atno 2    bound_to 1    AM6 ON 
  -17.0564   10.8595   20.6816 H   0  0  0  0  0  0  0  0  0  0  0  0  # atno 3    bound_to 1    AM6 ON 
  -17.8392   11.5551   21.9273 LP  0  0  0  0  0  0  0  0  0  0  0  0  # atno 4    bound_to 1    AM6 ON 
  -16.6020   10.5271   22.2084 LP  0  0  0  0  0  0  0  0  0  0  0  0  # atno 5    bound_to 1    AM6 ON 
  -14.9200   12.9840   21.7870 O.3 0  0  0  0  0  0  0  0  0  0  0  0  # atno 1    bound_to 2    3    AM7 ON 
  -14.8260   13.6789   22.4901 H   0  0  0  0  0  0  0  0  0  0  0  0  # atno 2    bound_to 1    AM7 ON 
  -14.0215   12.7369   21.4436 H   0  0  0  0  0  0  0  0  0  0  0  0  # atno 3    bound_to 1    AM7 ON 
  -15.4767   13.3416   21.0372 LP  0  0  0  0  0  0  0  0  0  0  0  0  # atno 4    bound_to 1    AM7 ON 
  -15.3627   12.1754   22.1746 LP  0  0  0  0  0  0  0  0  0  0  0  0  # atno 5    bound_to 1    AM7 ON 

> <Gold.Score>
     Score         DG    S(hbond)    S(metal)    S(lipo)     H(rot)  DE(clash)    DE(int)    S(bar)      intcor
     47.05     -49.11      12.58        0.00     116.34       0.00       0.17       1.90      12.00       0.22

> <Gold.Chemscore.Fitness>
47.0466

> <Gold.Chemscore.DG>
-49.1136

> <Gold.Chemscore.ZeroCoef>
-5.4800

> <Gold.Chemscore.Hbond>
12.5815

> <Gold.Chemscore.Metal>
0.0000

> <Gold.Chemscore.Lipo>
116.3369

> <Gold.Chemscore.Internal_Hbond>
0.0000

> <Gold.Chemscore.DEClash>
0.1675

> <Gold.Chemscore.DEInternal>
1.8995

> <Gold.Chemscore.Rot>
0.0000

> <Gold.Chemscore.Internal.Correction>
0.2222

> <Gold.Chemscore.SBar>
12.0000

> <Gold.Chemscore.Hbonds>
donor molecule, donor type, donor heavy atom, donor atom, acceptor molecule, acceptor atom, score
      L1  H     9    20       P1   238  1.00
     AM1  H     1     2      AM6     1  0.99
     AM1  H     1     3       L1    12  0.94
     AM2  H     1     2       P1   358  0.93
     AM4  H     1     2       P1   238  1.00
     AM4  H     1     3       P1   267  1.00
     AM6  H     1     2      AM7     1  0.99
     AM6  H     1     3       P1   634  0.99
     AM7  H     1     2      AM4     1  0.99
     AM7  H     1     3       P1   419  1.00
      P1  H   701  1501      AM5     1  0.99
      P1  H   358  1251      AM1     1  0.91
      P1  H   416  1258      AM2     1  0.86

> <Gold.Chemscore.Hbond.Weighted>
-42.0221

> <Gold.Chemscore.Metal.Weighted>
-0.0000

> <Gold.Chemscore.Lipo.Weighted>
-13.6114

> <Gold.Chemscore.Internal_Hbond.Weighted>
0.0000

> <Gold.Chemscore.DEClash.Weighted>
0.1675

> <Gold.Chemscore.DEInternal.Weighted>
1.8995

> <Gold.Chemscore.Rot.Weighted>
0.0000

> <Gold.Chemscore.Internal.Correction.Weighted>
0.2222

