#       Name:                F780-57B4788DD3C56E15-189260020029FCE7-NMX
#       Creating user name   iorga
#       Creation time:       Tue Dec 10 18:17:33 2019


#       File generated by GOLD software.
#

@<TRIPOS>MOLECULE
F780-57B4788DD3C56E15-189260020029FCE7-NMX|ligands_smiles_3D-hash-site3|mol2|1|dock30
    38    40     1
SMALL
NO_CHARGES


@<TRIPOS>ATOM
      1 O1          -8.0942   4.9178  16.4633 O.3            1 <1>                0.0000
      2 C2          -8.7890   3.8579  15.8420 C.3            1 <1>                0.0000
      3 C3          -9.5056   2.8601  16.7450 C.3            1 <1>                0.0000
      4 C4         -10.1644   4.1661  15.2599 C.3            1 <1>                0.0000
      5 C5         -11.9926   2.8653  16.3860 C.3            1 <1>                0.0000
      6 C6         -13.0768   2.9136  15.3115 C.ar           1 <1>                0.0000
      7 C7         -14.2575   3.6709  15.4922 C.ar           1 <1>                0.0000
      8 C8         -15.2480   3.6960  14.4917 C.ar           1 <1>                0.0000
      9 C9         -15.0675   2.9650  13.3026 C.ar           1 <1>                0.0000
     10 C10        -13.8955   2.2085  13.1149 C.ar           1 <1>                0.0000
     11 C11        -12.9049   2.1823  14.1156 C.ar           1 <1>                0.0000
     12 C12        -12.1695   1.7034  17.3598 C.ar           1 <1>                0.0000
     13 C13        -11.7627   1.8115  18.7092 C.ar           1 <1>                0.0000
     14 C14        -11.9389   0.7313  19.5953 C.ar           1 <1>                0.0000
     15 C15        -12.5270  -0.4643  19.1418 C.ar           1 <1>                0.0000
     16 C16        -12.9390  -0.5787  17.8008 C.ar           1 <1>                0.0000
     17 C17        -12.7611   0.5005  16.9138 C.ar           1 <1>                0.0000
     18 H18         -8.3615   5.7169  16.0340 H              1 <1>                0.0000
     19 H19         -8.1332   3.3735  15.1173 H              1 <1>                0.0000
     20 H20         -8.9999   1.8938  16.7945 H              1 <1>                0.0000
     21 H21         -9.7659   3.2350  17.7355 H              1 <1>                0.0000
     22 H22        -10.6705   5.0275  15.6970 H              1 <1>                0.0000
     23 H23        -10.1644   4.2027  14.1687 H              1 <1>                0.0000
     24 H24        -12.0929   3.7848  16.9661 H              1 <1>                0.0000
     25 H25        -14.4161   4.2330  16.4006 H              1 <1>                0.0000
     26 H26        -16.1478   4.2756  14.6371 H              1 <1>                0.0000
     27 H27        -15.8272   2.9845  12.5351 H              1 <1>                0.0000
     28 H28        -13.7556   1.6481  12.2020 H              1 <1>                0.0000
     29 H29        -12.0095   1.5991  13.9573 H              1 <1>                0.0000
     30 H30        -11.3165   2.7217  19.0787 H              1 <1>                0.0000
     31 H31        -11.6234   0.8198  20.6248 H              1 <1>                0.0000
     32 H32        -12.6628  -1.2924  19.8218 H              1 <1>                0.0000
     33 H33        -13.3915  -1.4955  17.4522 H              1 <1>                0.0000
     34 H34        -13.0822   0.3971  15.8875 H              1 <1>                0.0000
     35 N35        -10.6265   2.8888  15.8041 N.4            1 <1>                0.0000
     36 H36        -10.5068   2.1615  15.1136 H              1 <1>                0.0000
     37 ****        -7.1080   4.7873  16.3614 LP             1 <1>                0.0000
     38 ****        -8.3266   4.9567  17.4352 LP             1 <1>                0.0000
@<TRIPOS>BOND
    1    1    2 1     
    2    1   18 1     
    3    2    4 1     
    4    2    3 1     
    5    2   19 1     
    6    3   20 1     
    7    3   21 1     
    8    3   35 1     
    9    4   22 1     
   10    4   23 1     
   11    4   35 1     
   12    5    6 1     
   13    5   12 1     
   14    5   24 1     
   15    5   35 1     
   16    6   11 ar    
   17    6    7 ar    
   18    7    8 ar    
   19    7   25 1     
   20    8    9 ar    
   21    8   26 1     
   22    9   10 ar    
   23    9   27 1     
   24   10   11 ar    
   25   10   28 1     
   26   11   29 1     
   27   12   17 ar    
   28   12   13 ar    
   29   13   14 ar    
   30   13   30 1     
   31   14   15 ar    
   32   14   31 1     
   33   15   16 ar    
   34   15   32 1     
   35   16   17 ar    
   36   16   33 1     
   37   17   34 1     
   38   35   36 1     
   39    1   37 1     
   40    1   38 1     
@<TRIPOS>SUBSTRUCTURE
      1 ****           1
@<TRIPOS>SET
LONE_PAIRS      STATIC     ATOMS    <user>   **** ""
2 37 38
DONOR_HYDROGENS      STATIC     ATOMS    <user>   **** ""
2 18 36
ATOM$BLUE        STATIC     ATOMS    COLORGROUP SYSTEM
2 37 38
ATOM$RED        STATIC     ATOMS    COLORGROUP SYSTEM
2 18 36
@<TRIPOS>COMMENT
> <Gold.Version>
5.7.1

> <Gold.Id.Protein>
5ENC|5ENC_protein|mol2

> <Gold.Protein.RotatedTorsions>
[ 1690  407  406  403 ] final   69.12 input   60.00 | X-H torsion
[ 1043  487  486  483 ] final  -93.04 input   60.00 | X-H torsion
[ 1395  596  595  594 ] final  -20.28 input   60.00 | X-H torsion
[ 1776  534  533  531 ] final  -72.57 input   60.00 | X-H torsion

> <Gold.Protein.ActiveResidues>
 THR47   MET49   THR53   THR57   ASN62   TYR63   GLU68   LYS71   ASP72   ARG74  
 LEU75  

> <Gold.Protein.RotatedAtoms>
   -3.0966   11.6859   15.1583 H   0  0  0  0  0  0  0  0  0  0  0  0  # atno 1043 bound_to 487 
  -11.4005    0.5562   12.2823 H   0  0  0  0  0  0  0  0  0  0  0  0  # atno 1395 bound_to 596 
  -12.4728    0.8828   11.0614 H   0  0  0  0  0  0  0  0  0  0  0  0  # atno 1396 bound_to 596 
  -11.4631   -0.4269   10.9493 H   0  0  0  0  0  0  0  0  0  0  0  0  # atno 1397 bound_to 596 
   -9.7506    2.0938   22.1841 H   0  0  0  0  0  0  0  0  0  0  0  0  # atno 1690 bound_to 407 
   -7.9862   10.6412   12.6930 H   0  0  0  0  0  0  0  0  0  0  0  0  # atno 1776 bound_to 534 
   -8.2946    2.7521   22.4921 LP  0  0  0  0  0  0  0  0  0  0  0  0  # atno 2048 bound_to 407 
   -8.6736    2.2739   20.9775 LP  0  0  0  0  0  0  0  0  0  0  0  0  # atno 2049 bound_to 407 
   -4.6961   11.9845   15.1366 LP  0  0  0  0  0  0  0  0  0  0  0  0  # atno 2056 bound_to 487 
   -3.6358   13.2126   15.3206 LP  0  0  0  0  0  0  0  0  0  0  0  0  # atno 2057 bound_to 487 

> <Gold.Score>
     Score         DG    S(hbond)    S(metal)    S(lipo)     H(rot)  DE(clash)    DE(int)     intcor
     18.77     -19.22       0.99        0.00     125.07       1.64       0.34       0.12       5.01

> <Gold.Chemscore.Fitness>
18.7672

> <Gold.Chemscore.DG>
-19.2231

> <Gold.Chemscore.ZeroCoef>
-5.4800

> <Gold.Chemscore.Hbond>
0.9922

> <Gold.Chemscore.Metal>
0.0000

> <Gold.Chemscore.Lipo>
125.0677

> <Gold.Chemscore.Internal_Hbond>
0.0000

> <Gold.Chemscore.DEClash>
0.3390

> <Gold.Chemscore.DEInternal>
0.1169

> <Gold.Chemscore.Rot>
1.6421

> <Gold.Chemscore.Internal.Correction>
5.0125

> <Gold.Chemscore.Hbonds>
donor molecule, donor type, donor heavy atom, donor atom, acceptor molecule, acceptor atom, score
      L1  H     1    18       P1   603  0.99

> <Gold.Chemscore.Hbond.Weighted>
-3.3138

> <Gold.Chemscore.Metal.Weighted>
-0.0000

> <Gold.Chemscore.Lipo.Weighted>
-14.6329

> <Gold.Chemscore.Internal_Hbond.Weighted>
0.0000

> <Gold.Chemscore.DEClash.Weighted>
0.3390

> <Gold.Chemscore.DEInternal.Weighted>
0.1169

> <Gold.Chemscore.Rot.Weighted>
4.2037

> <Gold.Chemscore.Internal.Correction.Weighted>
5.0125

