#       Name:                F709-49089CCF184E7F9B-49089CCF184E7F9B-NMX
#       Creating user name   iorga
#       Creation time:       Wed Nov 27 19:02:34 2019


#       File generated by GOLD software.
#

@<TRIPOS>MOLECULE
F709-49089CCF184E7F9B-49089CCF184E7F9B-NMX|ligands_smiles_3D-hash|mol2|730|dock34
    35    36     1
SMALL
NO_CHARGES


@<TRIPOS>ATOM
      1 N1         -18.9365  12.0155  24.0295 N.am           1 <1>                0.0000
      2 C2         -19.9143  12.3573  24.8744 C.2            1 <1>                0.0000
      3 O3         -21.0714  11.9872  24.6833 O.2            1 <1>                0.0000
      4 N4         -19.5371  13.1559  25.9042 N.am           1 <1>                0.0000
      5 C5         -18.2002  13.7403  26.1136 C.3            1 <1>                0.0000
      6 C6         -17.5451  13.0870  27.3486 C.3            1 <1>                0.0000
      7 N7         -18.4161  13.2749  28.5230 N.am           1 <1>                0.0000
      8 C8         -19.5683  14.0660  28.1752 C.3            1 <1>                0.0000
      9 C9         -20.3991  13.3846  27.0718 C.3            1 <1>                0.0000
     10 C10        -18.1102  12.9322  29.7996 C.2            1 <1>                0.0000
     11 O11        -17.2067  12.1422  30.0754 O.2            1 <1>                0.0000
     12 C12        -18.8732  13.5367  30.9128 C.2            1 <1>                0.0000
     13 C13        -19.1691  14.8480  31.1714 C.2            1 <1>                0.0000
     14 C14        -19.9793  14.8602  32.3404 C.2            1 <1>                0.0000
     15 C15        -20.1403  13.5529  32.6996 C.2            1 <1>                0.0000
     16 O16        -19.4859  12.7336  31.8326 O.3            1 <1>                0.0000
     17 H17        -19.1443  11.4234  23.2387 H              1 <1>                0.0000
     18 H18        -17.9968  12.3504  24.1840 H              1 <1>                0.0000
     19 H19        -17.5332  13.6364  25.2582 H              1 <1>                0.0000
     20 H20        -18.3050  14.8148  26.2724 H              1 <1>                0.0000
     21 H21        -16.5545  13.5221  27.4645 H              1 <1>                0.0000
     22 H22        -17.3932  12.0198  27.1807 H              1 <1>                0.0000
     23 H23        -19.2899  15.0714  27.8572 H              1 <1>                0.0000
     24 H24        -20.1732  14.1974  29.0738 H              1 <1>                0.0000
     25 H25        -21.2395  14.0184  26.7842 H              1 <1>                0.0000
     26 H26        -20.8389  12.4639  27.4574 H              1 <1>                0.0000
     27 H27        -18.8397  15.6966  30.5899 H              1 <1>                0.0000
     28 H28        -20.3986  15.7164  32.8482 H              1 <1>                0.0000
     29 H29        -20.6684  13.0531  33.4983 H              1 <1>                0.0000
     30 ****       -21.2909  11.4229  23.8874 LP             1 <1>                0.0000
     31 ****       -21.7928  12.2505  25.3238 LP             1 <1>                0.0000
     32 ****       -16.6657  11.7263  29.3444 LP             1 <1>                0.0000
     33 ****       -17.0140  11.9167  31.0304 LP             1 <1>                0.0000
     34 ****       -18.8045  12.1891  32.3217 LP             1 <1>                0.0000
     35 ****       -20.1358  12.1243  31.3783 LP             1 <1>                0.0000
@<TRIPOS>BOND
    1    1    2 am    
    2    1   17 1     
    3    1   18 1     
    4    2    3 2     
    5    2    4 am    
    6    4    9 1     
    7    4    5 1     
    8    5    6 1     
    9    5   19 1     
   10    5   20 1     
   11    6    7 1     
   12    6   21 1     
   13    6   22 1     
   14    7    8 1     
   15    7   10 am    
   16    8    9 1     
   17    8   23 1     
   18    8   24 1     
   19    9   25 1     
   20    9   26 1     
   21   10   11 2     
   22   10   12 1     
   23   12   16 1     
   24   12   13 2     
   25   13   14 1     
   26   13   27 1     
   27   14   15 2     
   28   14   28 1     
   29   15   16 1     
   30   15   29 1     
   31    3   30 1     
   32    3   31 1     
   33   11   32 1     
   34   11   33 1     
   35   16   34 1     
   36   16   35 1     
@<TRIPOS>SUBSTRUCTURE
      1 ****           1
@<TRIPOS>SET
LONE_PAIRS      STATIC     ATOMS    <user>   **** ""
6 30 31 32 33 34 35
DONOR_HYDROGENS      STATIC     ATOMS    <user>   **** ""
2 17 18
ATOM$BLUE        STATIC     ATOMS    COLORGROUP SYSTEM
6 30 31 32 33 34 35
ATOM$RED        STATIC     ATOMS    COLORGROUP SYSTEM
2 17 18
@<TRIPOS>COMMENT
> <Gold.Version>
5.7.1

> <Gold.Id.Protein>
5ENC|5ENC_protein|mol2

> <Gold.Protein.RotatedTorsions>
[ 1501  701  700  697 ] final  113.66 input   60.00 | X-H torsion
[ 1497  695  694  692 ] final  158.84 input   60.00 | X-H torsion
[ 1251  358  357  355 ] final   -5.85 input   60.00 | X-H torsion
[ 1470  669  668  665 ] final   53.20 input   60.00 | X-H torsion

> <Gold.Protein.ActiveResidues>
 PRO28   PHE29   GLN31   PRO32   VAL33   TYR38   TYR41   PRO48   MET49   ASP50  
 ILE76   ASN79   SER80   TYR83   THR84   ILE91  

> <Gold.Protein.RotatedAtoms>
  -16.3777    9.4834   24.7102 H   0  0  0  0  0  0  0  0  0  0  0  0  # atno 1251 bound_to 358 
  -21.5554   11.2492   22.8362 H   0  0  0  0  0  0  0  0  0  0  0  0  # atno 1470 bound_to 669 
  -19.1296   10.8041   32.1907 H   0  0  0  0  0  0  0  0  0  0  0  0  # atno 1497 bound_to 695 
  -22.2198   10.9397   25.7880 H   0  0  0  0  0  0  0  0  0  0  0  0  # atno 1501 bound_to 701 
  -22.7227   10.0632   27.0635 LP  0  0  0  0  0  0  0  0  0  0  0  0  # atno 2046 bound_to 701 
  -23.3155   11.5646   26.8162 LP  0  0  0  0  0  0  0  0  0  0  0  0  # atno 2047 bound_to 701 
  -18.2061    9.4960   32.4807 LP  0  0  0  0  0  0  0  0  0  0  0  0  # atno 2052 bound_to 695 
  -19.8217    9.4249   32.7072 LP  0  0  0  0  0  0  0  0  0  0  0  0  # atno 2053 bound_to 695 
  -15.0672    8.5603   24.4302 LP  0  0  0  0  0  0  0  0  0  0  0  0  # atno 2056 bound_to 358 
  -14.9358   10.1879   24.4409 LP  0  0  0  0  0  0  0  0  0  0  0  0  # atno 2057 bound_to 358 

> <Gold.Protein.RotatedWaterAtoms>
  -17.7040   10.2320   24.0390 O.3 0  0  0  0  0  0  0  0  0  0  0  0  # atno 1    bound_to 2    3    AM1 ON 
  -17.6724   10.5478   23.0981 H   0  0  0  0  0  0  0  0  0  0  0  0  # atno 2    bound_to 1    AM1 ON 
  -18.6388   10.2755   24.3715 H   0  0  0  0  0  0  0  0  0  0  0  0  # atno 3    bound_to 1    AM1 ON 
  -17.1211   10.8142   24.6058 LP  0  0  0  0  0  0  0  0  0  0  0  0  # atno 4    bound_to 1    AM1 ON 
  -17.3775    9.2879   24.0849 LP  0  0  0  0  0  0  0  0  0  0  0  0  # atno 5    bound_to 1    AM1 ON 
  -13.7450   10.2720   23.0540 O.3 0  0  0  0  0  0  0  0  0  0  0  0  # atno 1    bound_to 2    3    AM2 ON 
  -14.2671   11.0938   22.8587 H   0  0  0  0  0  0  0  0  0  0  0  0  # atno 2    bound_to 1    AM2 ON 
  -14.2958    9.6519   23.6003 H   0  0  0  0  0  0  0  0  0  0  0  0  # atno 3    bound_to 1    AM2 ON 
  -12.9169   10.5153   23.5590 LP  0  0  0  0  0  0  0  0  0  0  0  0  # atno 4    bound_to 1    AM2 ON 
  -13.4928    9.8255   22.1955 LP  0  0  0  0  0  0  0  0  0  0  0  0  # atno 5    bound_to 1    AM2 ON 
  -21.1690   11.6250   24.3940 O.3 0  0  0  0  0  0  0  0  0  0  0  0  # atno 1    bound_to 2    3    AM3 OFF
  -21.0389   11.4815   23.4201 H   0  0  0  0  0  0  0  0  0  0  0  0  # atno 2    bound_to 1    AM3 OFF
  -22.1002   11.9261   24.5627 H   0  0  0  0  0  0  0  0  0  0  0  0  # atno 3    bound_to 1    AM3 OFF
  -20.5294   12.3228   24.7165 LP  0  0  0  0  0  0  0  0  0  0  0  0  # atno 4    bound_to 1    AM3 OFF
  -21.0020   10.7685   24.8824 LP  0  0  0  0  0  0  0  0  0  0  0  0  # atno 5    bound_to 1    AM3 OFF
  -14.6550   15.1580   23.4130 O.3 0  0  0  0  0  0  0  0  0  0  0  0  # atno 1    bound_to 2    3    AM4 ON 
  -15.4389   15.7203   23.6481 H   0  0  0  0  0  0  0  0  0  0  0  0  # atno 2    bound_to 1    AM4 ON 
  -13.8234   15.6028   23.7242 H   0  0  0  0  0  0  0  0  0  0  0  0  # atno 3    bound_to 1    AM4 ON 
  -14.6171   15.0368   22.4211 LP  0  0  0  0  0  0  0  0  0  0  0  0  # atno 4    bound_to 1    AM4 ON 
  -14.7408   14.2650   23.8549 LP  0  0  0  0  0  0  0  0  0  0  0  0  # atno 5    bound_to 1    AM4 ON 
  -23.6820   12.7820   28.0340 O.3 0  0  0  0  0  0  0  0  0  0  0  0  # atno 1    bound_to 2    3    AM5 ON 
  -23.4669   11.8857   27.6645 H   0  0  0  0  0  0  0  0  0  0  0  0  # atno 2    bound_to 1    AM5 ON 
  -22.8961   13.3802   27.9302 H   0  0  0  0  0  0  0  0  0  0  0  0  # atno 3    bound_to 1    AM5 ON 
  -23.9102   12.6967   29.0039 LP  0  0  0  0  0  0  0  0  0  0  0  0  # atno 4    bound_to 1    AM5 ON 
  -24.4618   13.1675   27.5407 LP  0  0  0  0  0  0  0  0  0  0  0  0  # atno 5    bound_to 1    AM5 ON 
  -16.9520   11.2350   21.5950 O.3 0  0  0  0  0  0  0  0  0  0  0  0  # atno 1    bound_to 2    3    AM6 ON 
  -16.9499   10.8257   20.6903 H   0  0  0  0  0  0  0  0  0  0  0  0  # atno 2    bound_to 1    AM6 ON 
  -16.3866   12.0514   21.5902 H   0  0  0  0  0  0  0  0  0  0  0  0  # atno 3    bound_to 1    AM6 ON 
  -16.5874   10.5808   22.2577 LP  0  0  0  0  0  0  0  0  0  0  0  0  # atno 4    bound_to 1    AM6 ON 
  -17.8881   11.4793   21.8482 LP  0  0  0  0  0  0  0  0  0  0  0  0  # atno 5    bound_to 1    AM6 ON 
  -14.9200   12.9840   21.7870 O.3 0  0  0  0  0  0  0  0  0  0  0  0  # atno 1    bound_to 2    3    AM7 ON 
  -14.0423   12.5256   21.7126 H   0  0  0  0  0  0  0  0  0  0  0  0  # atno 2    bound_to 1    AM7 ON 
  -14.8020   13.8505   22.2577 H   0  0  0  0  0  0  0  0  0  0  0  0  # atno 3    bound_to 1    AM7 ON 
  -15.5542   12.4081   22.3028 LP  0  0  0  0  0  0  0  0  0  0  0  0  # atno 4    bound_to 1    AM7 ON 
  -15.2885   13.1491   20.8721 LP  0  0  0  0  0  0  0  0  0  0  0  0  # atno 5    bound_to 1    AM7 ON 

> <Gold.Score>
     Score         DG    S(hbond)    S(metal)    S(lipo)     H(rot)  DE(clash)    DE(int)    S(bar)      intcor
     46.96     -47.87      13.35        0.00      83.86       0.00       0.29       0.62      12.00       1.08

> <Gold.Chemscore.Fitness>
46.9622

> <Gold.Chemscore.DG>
-47.8661

> <Gold.Chemscore.ZeroCoef>
-5.4800

> <Gold.Chemscore.Hbond>
13.3456

> <Gold.Chemscore.Metal>
0.0000

> <Gold.Chemscore.Lipo>
83.8614

> <Gold.Chemscore.Internal_Hbond>
0.0000

> <Gold.Chemscore.DEClash>
0.2869

> <Gold.Chemscore.DEInternal>
0.6170

> <Gold.Chemscore.Rot>
0.0000

> <Gold.Chemscore.Internal.Correction>
1.0833

> <Gold.Chemscore.SBar>
12.0000

> <Gold.Chemscore.Hbonds>
donor molecule, donor type, donor heavy atom, donor atom, acceptor molecule, acceptor atom, score
     AM1  H     1     2      AM6     1  0.98
     AM2  H     1     3       P1   358  0.93
     AM4  H     1     2       P1   238  0.99
     AM4  H     1     3       P1   267  0.98
     AM5  H     1     2       P1   701  0.90
     AM6  H     1     2       P1   634  0.99
     AM6  H     1     3      AM7     1  0.95
     AM7  H     1     2       P1   419  0.96
     AM7  H     1     3      AM4     1  0.98
      P1  H   701  1501       L1     3  0.99
      P1  H   695  1497       L1    16  0.99
      P1  H   358  1251      AM1     1  0.92
      P1  H   416  1258      AM2     1  0.84
      P1  H   669  1470       L1     3  0.94

> <Gold.Chemscore.Hbond.Weighted>
-44.5743

> <Gold.Chemscore.Metal.Weighted>
-0.0000

> <Gold.Chemscore.Lipo.Weighted>
-9.8118

> <Gold.Chemscore.Internal_Hbond.Weighted>
0.0000

> <Gold.Chemscore.DEClash.Weighted>
0.2869

> <Gold.Chemscore.DEInternal.Weighted>
0.6170

> <Gold.Chemscore.Rot.Weighted>
0.0000

> <Gold.Chemscore.Internal.Correction.Weighted>
1.0833

