#       Name:                F374-D9441F47FC78E682-D9441F47FC78E682-NMX
#       Creating user name   iorga
#       Creation time:       Wed Nov 27 16:48:29 2019


#       File generated by GOLD software.
#

@<TRIPOS>MOLECULE
F374-D9441F47FC78E682-D9441F47FC78E682-NMX|ligands_smiles_3D-hash|mol2|386|dock30
    22    22     1
SMALL
NO_CHARGES


@<TRIPOS>ATOM
      1 C1         -17.2723  12.7614  29.8367 C.3            1 <1>                0.0000
      2 C2         -17.8963  12.8618  28.4386 C.3            1 <1>                0.0000
      3 N3         -19.3258  13.1401  28.5071 N.am           1 <1>                0.0000
      4 C4         -20.0556  13.6975  27.5276 C.2            1 <1>                0.0000
      5 O5         -21.2630  13.9183  27.6236 O.2            1 <1>                0.0000
      6 C6         -19.2848  14.0293  26.2974 C.2            1 <1>                0.0000
      7 C7         -18.5900  15.1863  26.0736 C.2            1 <1>                0.0000
      8 N8         -18.0708  14.9937  24.8135 N.pl3          1 <1>                0.0000
      9 N9         -18.4155  13.7990  24.2875 N.2            1 <1>                0.0000
     10 N10        -19.1508  13.2037  25.1743 N.2            1 <1>                0.0000
     11 H11        -16.1974  12.5935  29.7686 H              1 <1>                0.0000
     12 H12        -17.4301  13.6782  30.4055 H              1 <1>                0.0000
     13 H13        -17.7005  11.9352  30.4050 H              1 <1>                0.0000
     14 H14        -17.7153  11.9454  27.8748 H              1 <1>                0.0000
     15 H15        -17.4198  13.6684  27.8812 H              1 <1>                0.0000
     16 H16        -19.8009  12.8943  29.3638 H              1 <1>                0.0000
     17 H17        -18.4307  16.0756  26.6659 H              1 <1>                0.0000
     18 H18        -17.4928  15.6505  24.3088 H              1 <1>                0.0000
     19 ****       -21.7497  13.6796  28.4639 LP             1 <1>                0.0000
     20 ****       -21.7570  14.3363  26.8612 LP             1 <1>                0.0000
     21 ****       -18.1550  13.4431  23.3900 LP             1 <1>                0.0000
     22 ****       -19.5585  12.2963  25.0721 LP             1 <1>                0.0000
@<TRIPOS>BOND
    1    1    2 1     
    2    1   11 1     
    3    1   12 1     
    4    1   13 1     
    5    2    3 1     
    6    2   14 1     
    7    2   15 1     
    8    3    4 am    
    9    3   16 1     
   10    4    5 2     
   11    4    6 1     
   12    6   10 1     
   13    6    7 2     
   14    7    8 1     
   15    7   17 1     
   16    8    9 1     
   17    8   18 1     
   18    9   10 2     
   19    5   19 1     
   20    5   20 1     
   21    9   21 1     
   22   10   22 1     
@<TRIPOS>SUBSTRUCTURE
      1 ****           1
@<TRIPOS>SET
LONE_PAIRS      STATIC     ATOMS    <user>   **** ""
4 19 20 21 22
DONOR_HYDROGENS      STATIC     ATOMS    <user>   **** ""
2 16 18
ATOM$BLUE        STATIC     ATOMS    COLORGROUP SYSTEM
4 19 20 21 22
ATOM$RED        STATIC     ATOMS    COLORGROUP SYSTEM
2 16 18
@<TRIPOS>COMMENT
> <Gold.Version>
5.7.1

> <Gold.Id.Protein>
5ENC|5ENC_protein|mol2

> <Gold.Protein.RotatedTorsions>
[ 1501  701  700  697 ] final -100.39 input   60.00 | X-H torsion
[ 1497  695  694  692 ] final  140.56 input   60.00 | X-H torsion
[ 1251  358  357  355 ] final   -1.00 input   60.00 | X-H torsion
[ 1470  669  668  665 ] final   44.88 input   60.00 | X-H torsion

> <Gold.Protein.ActiveResidues>
 PRO28   PHE29   GLN31   PRO32   VAL33   TYR38   TYR41   PRO48   MET49   ASP50  
 ILE76   ASN79   SER80   TYR83   THR84   ILE91  

> <Gold.Protein.RotatedAtoms>
  -16.3681    9.5619   24.7101 H   0  0  0  0  0  0  0  0  0  0  0  0  # atno 1251 bound_to 358 
  -21.6184   11.1325   22.8653 H   0  0  0  0  0  0  0  0  0  0  0  0  # atno 1470 bound_to 669 
  -18.8352   10.7718   32.1634 H   0  0  0  0  0  0  0  0  0  0  0  0  # atno 1497 bound_to 695 
  -23.3843   11.2675   27.1078 H   0  0  0  0  0  0  0  0  0  0  0  0  # atno 1501 bound_to 701 
  -22.4182   11.3120   25.7991 LP  0  0  0  0  0  0  0  0  0  0  0  0  # atno 2046 bound_to 701 
  -22.4474    9.9857   26.7513 LP  0  0  0  0  0  0  0  0  0  0  0  0  # atno 2047 bound_to 701 
  -18.3741    9.2659   32.5731 LP  0  0  0  0  0  0  0  0  0  0  0  0  # atno 2052 bound_to 695 
  -19.9502    9.6875   32.6423 LP  0  0  0  0  0  0  0  0  0  0  0  0  # atno 2053 bound_to 695 
  -15.1392    8.5290   24.4436 LP  0  0  0  0  0  0  0  0  0  0  0  0  # atno 2056 bound_to 358 
  -14.8734   10.1401   24.4276 LP  0  0  0  0  0  0  0  0  0  0  0  0  # atno 2057 bound_to 358 

> <Gold.Protein.RotatedWaterAtoms>
  -17.7040   10.2320   24.0390 O.3 0  0  0  0  0  0  0  0  0  0  0  0  # atno 1    bound_to 2    3    AM1 ON 
  -17.7114   10.5753   23.1073 H   0  0  0  0  0  0  0  0  0  0  0  0  # atno 2    bound_to 1    AM1 ON 
  -18.5028   10.5700   24.5227 H   0  0  0  0  0  0  0  0  0  0  0  0  # atno 3    bound_to 1    AM1 ON 
  -16.8757   10.5457   24.5033 LP  0  0  0  0  0  0  0  0  0  0  0  0  # atno 4    bound_to 1    AM1 ON 
  -17.7204    9.2322   24.0260 LP  0  0  0  0  0  0  0  0  0  0  0  0  # atno 5    bound_to 1    AM1 ON 
  -13.7450   10.2720   23.0540 O.3 0  0  0  0  0  0  0  0  0  0  0  0  # atno 1    bound_to 2    3    AM2 ON 
  -14.2914   11.0783   22.8607 H   0  0  0  0  0  0  0  0  0  0  0  0  # atno 2    bound_to 1    AM2 ON 
  -14.2135    9.7073   23.7233 H   0  0  0  0  0  0  0  0  0  0  0  0  # atno 3    bound_to 1    AM2 ON 
  -12.8560   10.5510   23.4171 LP  0  0  0  0  0  0  0  0  0  0  0  0  # atno 4    bound_to 1    AM2 ON 
  -13.6120    9.7497   22.2117 LP  0  0  0  0  0  0  0  0  0  0  0  0  # atno 5    bound_to 1    AM2 ON 
  -21.1690   11.6250   24.3940 O.3 0  0  0  0  0  0  0  0  0  0  0  0  # atno 1    bound_to 2    3    AM3 ON 
  -21.6602   11.3989   25.2269 H   0  0  0  0  0  0  0  0  0  0  0  0  # atno 2    bound_to 1    AM3 ON 
  -20.3100   12.0662   24.6258 H   0  0  0  0  0  0  0  0  0  0  0  0  # atno 3    bound_to 1    AM3 ON 
  -21.7228   12.2450   23.8382 LP  0  0  0  0  0  0  0  0  0  0  0  0  # atno 4    bound_to 1    AM3 ON 
  -20.9855   10.7885   23.8777 LP  0  0  0  0  0  0  0  0  0  0  0  0  # atno 5    bound_to 1    AM3 ON 
  -14.6550   15.1580   23.4130 O.3 0  0  0  0  0  0  0  0  0  0  0  0  # atno 1    bound_to 2    3    AM4 ON 
  -13.8127   15.6756   23.5063 H   0  0  0  0  0  0  0  0  0  0  0  0  # atno 2    bound_to 1    AM4 ON 
  -15.4317   15.7661   23.5282 H   0  0  0  0  0  0  0  0  0  0  0  0  # atno 3    bound_to 1    AM4 ON 
  -14.6856   14.4423   24.1108 LP  0  0  0  0  0  0  0  0  0  0  0  0  # atno 4    bound_to 1    AM4 ON 
  -14.6906   14.7401   22.5052 LP  0  0  0  0  0  0  0  0  0  0  0  0  # atno 5    bound_to 1    AM4 ON 
  -23.6820   12.7820   28.0340 O.3 0  0  0  0  0  0  0  0  0  0  0  0  # atno 1    bound_to 2    3    AM5 ON 
  -24.2559   12.8512   28.8414 H   0  0  0  0  0  0  0  0  0  0  0  0  # atno 2    bound_to 1    AM5 ON 
  -22.9202   13.4140   28.1143 H   0  0  0  0  0  0  0  0  0  0  0  0  # atno 3    bound_to 1    AM5 ON 
  -24.2198   13.0095   27.2222 LP  0  0  0  0  0  0  0  0  0  0  0  0  # atno 4    bound_to 1    AM5 ON 
  -23.3333   11.8483   27.9519 LP  0  0  0  0  0  0  0  0  0  0  0  0  # atno 5    bound_to 1    AM5 ON 
  -16.9520   11.2350   21.5950 O.3 0  0  0  0  0  0  0  0  0  0  0  0  # atno 1    bound_to 2    3    AM6 ON 
  -16.3279   12.0056   21.5421 H   0  0  0  0  0  0  0  0  0  0  0  0  # atno 2    bound_to 1    AM6 ON 
  -17.0141   10.7977   20.7055 H   0  0  0  0  0  0  0  0  0  0  0  0  # atno 3    bound_to 1    AM6 ON 
  -17.8572   11.5575   21.8719 LP  0  0  0  0  0  0  0  0  0  0  0  0  # atno 4    bound_to 1    AM6 ON 
  -16.6127   10.5768   22.2670 LP  0  0  0  0  0  0  0  0  0  0  0  0  # atno 5    bound_to 1    AM6 ON 
  -14.9200   12.9840   21.7870 O.3 0  0  0  0  0  0  0  0  0  0  0  0  # atno 1    bound_to 2    3    AM7 ON 
  -14.7894   13.6108   22.5460 H   0  0  0  0  0  0  0  0  0  0  0  0  # atno 2    bound_to 1    AM7 ON 
  -14.0393   12.7634   21.3845 H   0  0  0  0  0  0  0  0  0  0  0  0  # atno 3    bound_to 1    AM7 ON 
  -15.5037   13.4126   21.0974 LP  0  0  0  0  0  0  0  0  0  0  0  0  # atno 4    bound_to 1    AM7 ON 
  -15.3547   12.1463   22.1176 LP  0  0  0  0  0  0  0  0  0  0  0  0  # atno 5    bound_to 1    AM7 ON 

> <Gold.Score>
     Score         DG    S(hbond)    S(metal)    S(lipo)     H(rot)  DE(clash)    DE(int)    S(bar)      intcor
     44.63     -46.28      15.15        0.00      57.79       1.00       0.00       1.65      14.00       0.00

> <Gold.Chemscore.Fitness>
44.6283

> <Gold.Chemscore.DG>
-46.2829

> <Gold.Chemscore.ZeroCoef>
-5.4800

> <Gold.Chemscore.Hbond>
15.1503

> <Gold.Chemscore.Metal>
0.0000

> <Gold.Chemscore.Lipo>
57.7867

> <Gold.Chemscore.Internal_Hbond>
0.0000

> <Gold.Chemscore.DEClash>
0.0000

> <Gold.Chemscore.DEInternal>
1.6546

> <Gold.Chemscore.Rot>
1.0000

> <Gold.Chemscore.Internal.Correction>
0.0001

> <Gold.Chemscore.SBar>
14.0000

> <Gold.Chemscore.Hbonds>
donor molecule, donor type, donor heavy atom, donor atom, acceptor molecule, acceptor atom, score
      L1  H     8    18       P1   238  1.00
     AM1  H     1     2      AM6     1  0.97
     AM2  H     1     3       P1   358  0.95
     AM3  H     1     2       P1   701  0.69
     AM3  H     1     3       L1    10  0.95
     AM4  H     1     2       P1   267  1.00
     AM4  H     1     3       P1   238  1.00
     AM5  H     1     3       L1     5  0.94
     AM6  H     1     2      AM7     1  0.98
     AM6  H     1     3       P1   634  1.00
     AM7  H     1     2      AM4     1  0.98
     AM7  H     1     3       P1   419  0.99
      P1  H   701  1501      AM5     1  0.92
      P1  H   358  1251      AM1     1  0.95
      P1  H   416  1258      AM2     1  0.85
      P1  H   669  1470      AM3     1  0.98

> <Gold.Chemscore.Hbond.Weighted>
-50.6019

> <Gold.Chemscore.Metal.Weighted>
-0.0000

> <Gold.Chemscore.Lipo.Weighted>
-6.7610

> <Gold.Chemscore.Internal_Hbond.Weighted>
0.0000

> <Gold.Chemscore.DEClash.Weighted>
0.0000

> <Gold.Chemscore.DEInternal.Weighted>
1.6546

> <Gold.Chemscore.Rot.Weighted>
2.5600

> <Gold.Chemscore.Internal.Correction.Weighted>
0.0001

