#       Name:                F179-0EB9C0534BD59B15-0EB9C0534BD59B15-NMX
#       Creating user name   iorga
#       Creation time:       Wed Nov 27 13:07:16 2019


#       File generated by GOLD software.
#

@<TRIPOS>MOLECULE
F179-0EB9C0534BD59B15-0EB9C0534BD59B15-NMX|ligands_smiles_3D-hash|mol2|185|dock27
    32    33     1
SMALL
NO_CHARGES


@<TRIPOS>ATOM
      1 C1         -19.3113  13.0951  24.1052 C.3            1 <1>                0.0000
      2 C2         -20.6159  13.0592  24.9116 C.3            1 <1>                0.0000
      3 O3         -21.2230  11.8000  24.7126 O.3            1 <1>                0.0000
      4 C4         -20.3629  13.3341  26.3700 C.2            1 <1>                0.0000
      5 C5         -21.3046  13.3654  27.4384 C.2            1 <1>                0.0000
      6 N6         -20.7482  13.6349  28.6076 N.2            1 <1>                0.0000
      7 N7         -19.4329  13.7826  28.3335 N.pl3          1 <1>                0.0000
      8 C8         -19.1760  13.6058  26.9901 C.2            1 <1>                0.0000
      9 C9         -18.4831  14.0969  29.3916 C.3            1 <1>                0.0000
     10 C10        -17.2924  12.8369  29.3603 C.3            1 <1>                0.0000
     11 C11        -17.1350  12.5913  31.0466 C.3            1 <1>                0.0000
     12 C12        -18.6182  12.7487  31.4201 C.3            1 <1>                0.0000
     13 C13        -19.0905  14.0719  30.7997 C.3            1 <1>                0.0000
     14 H14        -18.8237  14.0663  24.1928 H              1 <1>                0.0000
     15 H15        -18.6073  12.3375  24.4524 H              1 <1>                0.0000
     16 H16        -19.4982  12.9152  23.0460 H              1 <1>                0.0000
     17 H17        -21.2948  13.8066  24.4997 H              1 <1>                0.0000
     18 H18        -21.6493  11.5422  25.5157 H              1 <1>                0.0000
     19 H19        -22.3712  13.2001  27.3975 H              1 <1>                0.0000
     20 H20        -18.1771  13.6873  26.5878 H              1 <1>                0.0000
     21 H21        -18.0865  15.0963  29.2046 H              1 <1>                0.0000
     22 H22        -17.6724  11.8584  29.0641 H              1 <1>                0.0000
     23 H23        -16.3829  13.0270  28.7895 H              1 <1>                0.0000
     24 H24        -16.5517  13.3684  31.5423 H              1 <1>                0.0000
     25 H25        -16.7284  11.6290  31.3591 H              1 <1>                0.0000
     26 H26        -18.7342  12.7641  32.5043 H              1 <1>                0.0000
     27 H27        -19.2121  11.9157  31.0425 H              1 <1>                0.0000
     28 H28        -18.7934  14.9378  31.3916 H              1 <1>                0.0000
     29 H29        -20.1802  14.0701  30.7501 H              1 <1>                0.0000
     30 ****       -20.5269  11.1249  24.4685 LP             1 <1>                0.0000
     31 ****       -21.8981  11.8635  23.9776 LP             1 <1>                0.0000
     32 ****       -21.2000  13.7121  29.4964 LP             1 <1>                0.0000
@<TRIPOS>BOND
    1    1    2 1     
    2    1   14 1     
    3    1   15 1     
    4    1   16 1     
    5    2    3 1     
    6    2    4 1     
    7    2   17 1     
    8    3   18 1     
    9    4    8 2     
   10    4    5 1     
   11    5    6 2     
   12    5   19 1     
   13    6    7 1     
   14    7    8 1     
   15    7    9 1     
   16    8   20 1     
   17    9   13 1     
   18    9   10 1     
   19    9   21 1     
   20   10   11 1     
   21   10   22 1     
   22   10   23 1     
   23   11   12 1     
   24   11   24 1     
   25   11   25 1     
   26   12   13 1     
   27   12   26 1     
   28   12   27 1     
   29   13   28 1     
   30   13   29 1     
   31    3   30 1     
   32    3   31 1     
   33    6   32 1     
@<TRIPOS>SUBSTRUCTURE
      1 ****           1
@<TRIPOS>SET
LONE_PAIRS      STATIC     ATOMS    <user>   **** ""
3 30 31 32
DONOR_HYDROGENS      STATIC     ATOMS    <user>   **** ""
1 18
ATOM$BLUE        STATIC     ATOMS    COLORGROUP SYSTEM
3 30 31 32
ATOM$RED        STATIC     ATOMS    COLORGROUP SYSTEM
1 18
@<TRIPOS>COMMENT
> <Gold.Version>
5.7.1

> <Gold.Id.Protein>
5ENC|5ENC_protein|mol2

> <Gold.Protein.RotatedTorsions>
[ 1501  701  700  697 ] final  -68.69 input   60.00 | X-H torsion
[ 1497  695  694  692 ] final -165.41 input   60.00 | X-H torsion
[ 1251  358  357  355 ] final   -7.54 input   60.00 | X-H torsion
[ 1470  669  668  665 ] final   43.01 input   60.00 | X-H torsion

> <Gold.Protein.ActiveResidues>
 PRO28   PHE29   GLN31   PRO32   VAL33   TYR38   TYR41   PRO48   MET49   ASP50  
 ILE76   ASN79   SER80   TYR83   THR84   ILE91  

> <Gold.Protein.RotatedAtoms>
  -16.3795    9.4558   24.7099 H   0  0  0  0  0  0  0  0  0  0  0  0  # atno 1251 bound_to 358 
  -21.6337   11.1064   22.8694 H   0  0  0  0  0  0  0  0  0  0  0  0  # atno 1470 bound_to 669 
  -19.6563   10.6118   32.3169 H   0  0  0  0  0  0  0  0  0  0  0  0  # atno 1497 bound_to 695 
  -23.2988   10.8065   27.3120 H   0  0  0  0  0  0  0  0  0  0  0  0  # atno 1501 bound_to 701 
  -22.7529   11.6340   26.0215 LP  0  0  0  0  0  0  0  0  0  0  0  0  # atno 2046 bound_to 701 
  -22.1987   10.1279   26.3234 LP  0  0  0  0  0  0  0  0  0  0  0  0  # atno 2047 bound_to 701 
  -18.1322   10.0417   32.3026 LP  0  0  0  0  0  0  0  0  0  0  0  0  # atno 2052 bound_to 695 
  -19.3652    9.0728   32.7583 LP  0  0  0  0  0  0  0  0  0  0  0  0  # atno 2053 bound_to 695 
  -15.0426    8.5727   24.4256 LP  0  0  0  0  0  0  0  0  0  0  0  0  # atno 2056 bound_to 358 
  -14.9585   10.2034   24.4457 LP  0  0  0  0  0  0  0  0  0  0  0  0  # atno 2057 bound_to 358 

> <Gold.Protein.RotatedWaterAtoms>
  -17.7040   10.2320   24.0390 O.3 0  0  0  0  0  0  0  0  0  0  0  0  # atno 1    bound_to 2    3    AM1 ON 
  -18.6415   10.0964   24.3370 H   0  0  0  0  0  0  0  0  0  0  0  0  # atno 2    bound_to 1    AM1 ON 
  -17.7002   10.6300   23.1291 H   0  0  0  0  0  0  0  0  0  0  0  0  # atno 3    bound_to 1    AM1 ON 
  -17.2297    9.3518   24.0198 LP  0  0  0  0  0  0  0  0  0  0  0  0  # atno 4    bound_to 1    AM1 ON 
  -17.2380   10.8479   24.6742 LP  0  0  0  0  0  0  0  0  0  0  0  0  # atno 5    bound_to 1    AM1 ON 
  -13.7450   10.2720   23.0540 O.3 0  0  0  0  0  0  0  0  0  0  0  0  # atno 1    bound_to 2    3    AM2 ON 
  -14.4323   10.4196   23.7553 H   0  0  0  0  0  0  0  0  0  0  0  0  # atno 2    bound_to 1    AM2 ON 
  -13.6148   11.1097   22.5366 H   0  0  0  0  0  0  0  0  0  0  0  0  # atno 3    bound_to 1    AM2 ON 
  -14.0474    9.5439   22.4389 LP  0  0  0  0  0  0  0  0  0  0  0  0  # atno 4    bound_to 1    AM2 ON 
  -12.8815   10.0080   23.4838 LP  0  0  0  0  0  0  0  0  0  0  0  0  # atno 5    bound_to 1    AM2 ON 
  -21.1690   11.6250   24.3940 O.3 0  0  0  0  0  0  0  0  0  0  0  0  # atno 1    bound_to 2    3    AM3 OFF
  -20.5009   11.4750   23.6748 H   0  0  0  0  0  0  0  0  0  0  0  0  # atno 2    bound_to 1    AM3 OFF
  -21.9670   11.0575   24.2281 H   0  0  0  0  0  0  0  0  0  0  0  0  # atno 3    bound_to 1    AM3 OFF
  -21.4402   12.5875   24.4016 LP  0  0  0  0  0  0  0  0  0  0  0  0  # atno 4    bound_to 1    AM3 OFF
  -20.7671   11.3850   25.2777 LP  0  0  0  0  0  0  0  0  0  0  0  0  # atno 5    bound_to 1    AM3 OFF
  -14.6550   15.1580   23.4130 O.3 0  0  0  0  0  0  0  0  0  0  0  0  # atno 1    bound_to 2    3    AM4 ON 
  -13.7526   15.5156   23.6223 H   0  0  0  0  0  0  0  0  0  0  0  0  # atno 2    bound_to 1    AM4 ON 
  -15.3384   15.8537   23.6008 H   0  0  0  0  0  0  0  0  0  0  0  0  # atno 3    bound_to 1    AM4 ON 
  -14.8342   14.3533   23.9789 LP  0  0  0  0  0  0  0  0  0  0  0  0  # atno 4    bound_to 1    AM4 ON 
  -14.6964   14.9022   22.4472 LP  0  0  0  0  0  0  0  0  0  0  0  0  # atno 5    bound_to 1    AM4 ON 
  -23.6820   12.7820   28.0340 O.3 0  0  0  0  0  0  0  0  0  0  0  0  # atno 1    bound_to 2    3    AM5 OFF
  -23.2312   12.1420   27.4231 H   0  0  0  0  0  0  0  0  0  0  0  0  # atno 2    bound_to 1    AM5 OFF
  -24.6663   12.6724   27.9606 H   0  0  0  0  0  0  0  0  0  0  0  0  # atno 3    bound_to 1    AM5 OFF
  -23.4310   13.7166   27.7819 LP  0  0  0  0  0  0  0  0  0  0  0  0  # atno 4    bound_to 1    AM5 OFF
  -23.3958   12.6023   28.9752 LP  0  0  0  0  0  0  0  0  0  0  0  0  # atno 5    bound_to 1    AM5 OFF
  -16.9520   11.2350   21.5950 O.3 0  0  0  0  0  0  0  0  0  0  0  0  # atno 1    bound_to 2    3    AM6 ON 
  -16.2794   11.9654   21.5788 H   0  0  0  0  0  0  0  0  0  0  0  0  # atno 2    bound_to 1    AM6 ON 
  -16.9761   10.7876   20.7087 H   0  0  0  0  0  0  0  0  0  0  0  0  # atno 3    bound_to 1    AM6 ON 
  -17.8533   11.6163   21.8006 LP  0  0  0  0  0  0  0  0  0  0  0  0  # atno 4    bound_to 1    AM6 ON 
  -16.7037   10.5687   22.2981 LP  0  0  0  0  0  0  0  0  0  0  0  0  # atno 5    bound_to 1    AM6 ON 
  -14.9200   12.9840   21.7870 O.3 0  0  0  0  0  0  0  0  0  0  0  0  # atno 1    bound_to 2    3    AM7 ON 
  -14.9122   13.8965   22.1786 H   0  0  0  0  0  0  0  0  0  0  0  0  # atno 2    bound_to 1    AM7 ON 
  -14.0213   12.7734   21.4205 H   0  0  0  0  0  0  0  0  0  0  0  0  # atno 3    bound_to 1    AM7 ON 
  -15.5976   12.9421   21.0528 LP  0  0  0  0  0  0  0  0  0  0  0  0  # atno 4    bound_to 1    AM7 ON 
  -15.1551   12.3190   22.4959 LP  0  0  0  0  0  0  0  0  0  0  0  0  # atno 5    bound_to 1    AM7 ON 

> <Gold.Score>
     Score         DG    S(hbond)    S(metal)    S(lipo)     H(rot)  DE(clash)    DE(int)    S(bar)      intcor
     45.04     -45.84      11.24        0.00     143.76       1.56       0.52       0.28      10.00       3.34

> <Gold.Chemscore.Fitness>
45.0393

> <Gold.Chemscore.DG>
-45.8429

> <Gold.Chemscore.ZeroCoef>
-5.4800

> <Gold.Chemscore.Hbond>
11.2400

> <Gold.Chemscore.Metal>
0.0000

> <Gold.Chemscore.Lipo>
143.7620

> <Gold.Chemscore.Internal_Hbond>
0.0000

> <Gold.Chemscore.DEClash>
0.5233

> <Gold.Chemscore.DEInternal>
0.2802

> <Gold.Chemscore.Rot>
1.5620

> <Gold.Chemscore.Internal.Correction>
3.3361

> <Gold.Chemscore.SBar>
10.0000

> <Gold.Chemscore.Hbonds>
donor molecule, donor type, donor heavy atom, donor atom, acceptor molecule, acceptor atom, score
      L1  H     3    18       P1   701  0.90
     AM1  H     1     3      AM6     1  0.98
     AM2  H     1     2       P1   358  0.66
     AM2  H     1     3       P1   419  0.66
     AM4  H     1     2       P1   267  0.99
     AM4  H     1     3       P1   238  1.00
     AM6  H     1     2      AM7     1  0.99
     AM6  H     1     3       P1   634  1.00
     AM7  H     1     2      AM4     1  0.97
     AM7  H     1     3       P1   419  0.99
      P1  H   358  1251      AM1     1  0.92
      P1  H   669  1470       L1     3  0.98
      P1  H   663  1465      AM2     1  0.21

> <Gold.Chemscore.Hbond.Weighted>
-37.5414

> <Gold.Chemscore.Metal.Weighted>
-0.0000

> <Gold.Chemscore.Lipo.Weighted>
-16.8202

> <Gold.Chemscore.Internal_Hbond.Weighted>
0.0000

> <Gold.Chemscore.DEClash.Weighted>
0.5233

> <Gold.Chemscore.DEInternal.Weighted>
0.2802

> <Gold.Chemscore.Rot.Weighted>
3.9987

> <Gold.Chemscore.Internal.Correction.Weighted>
3.3361

