#       Name:                F616-9792AA4A041D6A5D-9792AA4A041D6A5D-NMX
#       Creating user name   iorga
#       Creation time:       Wed Nov 27 17:10:13 2019


#       File generated by GOLD software.
#

@<TRIPOS>MOLECULE
F616-9792AA4A041D6A5D-9792AA4A041D6A5D-NMX|ligands_smiles_3D-hash|mol2|633|dock23
    26    26     1
SMALL
NO_CHARGES


@<TRIPOS>ATOM
      1 C1         -21.8823  14.5765  32.4861 C.3            1 <1>                0.0000
      2 S2         -21.1231  13.2531  31.4612 S.o2           1 <1>                0.0000
      3 O3         -22.1163  12.7989  30.4759 O.2            1 <1>                0.0000
      4 O4         -20.4586  12.2823  32.3436 O.2            1 <1>                0.0000
      5 N5         -19.8917  14.1055  30.6098 N.pl3          1 <1>                0.0000
      6 C6         -18.5340  14.0835  31.1551 C.3            1 <1>                0.0000
      7 C7         -17.6662  13.0467  30.4245 C.3            1 <1>                0.0000
      8 C8         -17.6998  13.2038  28.9138 C.ar           1 <1>                0.0000
      9 C9         -17.3429  14.4342  28.3224 C.ar           1 <1>                0.0000
     10 C10        -17.3657  14.5791  26.9215 C.ar           1 <1>                0.0000
     11 C11        -17.7457  13.4949  26.1068 C.ar           1 <1>                0.0000
     12 F12        -17.7667  13.6341  24.7602 F              1 <1>                0.0000
     13 C13        -18.1033  12.2656  26.6935 C.ar           1 <1>                0.0000
     14 C14        -18.0811  12.1200  28.0942 C.ar           1 <1>                0.0000
     15 H15        -22.6938  14.1549  33.0787 H              1 <1>                0.0000
     16 H16        -21.1312  15.0015  33.1515 H              1 <1>                0.0000
     17 H17        -22.2775  15.3579  31.8371 H              1 <1>                0.0000
     18 H18        -19.8909  13.8525  29.6220 H              1 <1>                0.0000
     19 H19        -18.5738  13.8615  32.2222 H              1 <1>                0.0000
     20 H20        -18.0968  15.0768  31.0494 H              1 <1>                0.0000
     21 H21        -18.0101  12.0427  30.6756 H              1 <1>                0.0000
     22 H22        -16.6353  13.1085  30.7762 H              1 <1>                0.0000
     23 H23        -17.0474  15.2685  28.9417 H              1 <1>                0.0000
     24 H24        -17.0904  15.5215  26.4717 H              1 <1>                0.0000
     25 H25        -18.3937  11.4337  26.0688 H              1 <1>                0.0000
     26 H26        -18.3531  11.1729  28.5366 H              1 <1>                0.0000
@<TRIPOS>BOND
    1    1    2 1     
    2    1   15 1     
    3    1   16 1     
    4    1   17 1     
    5    2    3 2     
    6    2    4 2     
    7    2    5 1     
    8    5    6 1     
    9    5   18 1     
   10    6    7 1     
   11    6   19 1     
   12    6   20 1     
   13    7    8 1     
   14    7   21 1     
   15    7   22 1     
   16    8   14 ar    
   17    8    9 ar    
   18    9   10 ar    
   19    9   23 1     
   20   10   11 ar    
   21   10   24 1     
   22   11   12 1     
   23   11   13 ar    
   24   13   14 ar    
   25   13   25 1     
   26   14   26 1     
@<TRIPOS>SUBSTRUCTURE
      1 ****           1
@<TRIPOS>SET
LONE_PAIRS      STATIC     ATOMS    <user>   **** ""
2 3 4
DONOR_HYDROGENS      STATIC     ATOMS    <user>   **** ""
1 18
ATOM$BLUE        STATIC     ATOMS    COLORGROUP SYSTEM
2 3 4
ATOM$RED        STATIC     ATOMS    COLORGROUP SYSTEM
1 18
@<TRIPOS>COMMENT
> <Gold.Version>
5.7.1

> <Gold.Id.Protein>
5ENC|5ENC_protein|mol2

> <Gold.Protein.RotatedTorsions>
[ 1501  701  700  697 ] final -110.02 input   60.00 | X-H torsion
[ 1497  695  694  692 ] final -175.56 input   60.00 | X-H torsion
[ 1251  358  357  355 ] final   -3.69 input   60.00 | X-H torsion
[ 1470  669  668  665 ] final   42.58 input   60.00 | X-H torsion

> <Gold.Protein.ActiveResidues>
 PRO28   PHE29   GLN31   PRO32   VAL33   TYR38   TYR41   PRO48   MET49   ASP50  
 ILE76   ASN79   SER80   TYR83   THR84   ILE91  

> <Gold.Protein.RotatedAtoms>
  -16.3742    9.5185   24.7103 H   0  0  0  0  0  0  0  0  0  0  0  0  # atno 1251 bound_to 358 
  -21.6373   11.1004   22.8702 H   0  0  0  0  0  0  0  0  0  0  0  0  # atno 1470 bound_to 669 
  -19.5224   10.6987   32.2730 H   0  0  0  0  0  0  0  0  0  0  0  0  # atno 1497 bound_to 695 
  -23.3726   11.3889   27.0087 H   0  0  0  0  0  0  0  0  0  0  0  0  # atno 1501 bound_to 701 
  -22.3321   11.1814   25.7748 LP  0  0  0  0  0  0  0  0  0  0  0  0  # atno 2046 bound_to 701 
  -22.5452    9.9940   26.8755 LP  0  0  0  0  0  0  0  0  0  0  0  0  # atno 2047 bound_to 701 
  -18.1166    9.8826   32.3498 LP  0  0  0  0  0  0  0  0  0  0  0  0  # atno 2052 bound_to 695 
  -19.5157    9.1445   32.7552 LP  0  0  0  0  0  0  0  0  0  0  0  0  # atno 2053 bound_to 695 
  -15.0989    8.5456   24.4361 LP  0  0  0  0  0  0  0  0  0  0  0  0  # atno 2056 bound_to 358 
  -14.9075   10.1673   24.4349 LP  0  0  0  0  0  0  0  0  0  0  0  0  # atno 2057 bound_to 358 

> <Gold.Protein.RotatedWaterAtoms>
  -17.7040   10.2320   24.0390 O.3 0  0  0  0  0  0  0  0  0  0  0  0  # atno 1    bound_to 2    3    AM1 ON 
  -17.6887   10.5710   23.1058 H   0  0  0  0  0  0  0  0  0  0  0  0  # atno 2    bound_to 1    AM1 ON 
  -18.6107   10.3610   24.4232 H   0  0  0  0  0  0  0  0  0  0  0  0  # atno 3    bound_to 1    AM1 ON 
  -17.0352   10.7342   24.5871 LP  0  0  0  0  0  0  0  0  0  0  0  0  # atno 4    bound_to 1    AM1 ON 
  -17.4753    9.2585   24.0438 LP  0  0  0  0  0  0  0  0  0  0  0  0  # atno 5    bound_to 1    AM1 ON 
  -13.7450   10.2720   23.0540 O.3 0  0  0  0  0  0  0  0  0  0  0  0  # atno 1    bound_to 2    3    AM2 ON 
  -14.1928    9.6787   23.7124 H   0  0  0  0  0  0  0  0  0  0  0  0  # atno 2    bound_to 1    AM2 ON 
  -14.3265   11.0544   22.8642 H   0  0  0  0  0  0  0  0  0  0  0  0  # atno 3    bound_to 1    AM2 ON 
  -13.5803    9.7660   22.2074 LP  0  0  0  0  0  0  0  0  0  0  0  0  # atno 4    bound_to 1    AM2 ON 
  -12.8732   10.5877   23.4286 LP  0  0  0  0  0  0  0  0  0  0  0  0  # atno 5    bound_to 1    AM2 ON 
  -21.1690   11.6250   24.3940 O.3 0  0  0  0  0  0  0  0  0  0  0  0  # atno 1    bound_to 2    3    AM3 ON 
  -21.4874   11.2404   25.2523 H   0  0  0  0  0  0  0  0  0  0  0  0  # atno 2    bound_to 1    AM3 ON 
  -20.5437   12.3741   24.5787 H   0  0  0  0  0  0  0  0  0  0  0  0  # atno 3    bound_to 1    AM3 ON 
  -21.9505   11.9644   23.8706 LP  0  0  0  0  0  0  0  0  0  0  0  0  # atno 4    bound_to 1    AM3 ON 
  -20.6964   10.9186   23.8671 LP  0  0  0  0  0  0  0  0  0  0  0  0  # atno 5    bound_to 1    AM3 ON 
  -14.6550   15.1580   23.4130 O.3 0  0  0  0  0  0  0  0  0  0  0  0  # atno 1    bound_to 2    3    AM4 ON 
  -13.8408   15.7122   23.5395 H   0  0  0  0  0  0  0  0  0  0  0  0  # atno 2    bound_to 1    AM4 ON 
  -15.4617   15.7098   23.5890 H   0  0  0  0  0  0  0  0  0  0  0  0  # atno 3    bound_to 1    AM4 ON 
  -14.6344   14.3856   24.0478 LP  0  0  0  0  0  0  0  0  0  0  0  0  # atno 4    bound_to 1    AM4 ON 
  -14.6831   14.8166   22.4735 LP  0  0  0  0  0  0  0  0  0  0  0  0  # atno 5    bound_to 1    AM4 ON 
  -23.6820   12.7820   28.0340 O.3 0  0  0  0  0  0  0  0  0  0  0  0  # atno 1    bound_to 2    3    AM5 ON 
  -24.5469   13.2658   28.0970 H   0  0  0  0  0  0  0  0  0  0  0  0  # atno 2    bound_to 1    AM5 ON 
  -23.1154   13.0137   28.8160 H   0  0  0  0  0  0  0  0  0  0  0  0  # atno 3    bound_to 1    AM5 ON 
  -23.2124   13.0470   27.1919 LP  0  0  0  0  0  0  0  0  0  0  0  0  # atno 4    bound_to 1    AM5 ON 
  -23.8512   11.7965   28.0253 LP  0  0  0  0  0  0  0  0  0  0  0  0  # atno 5    bound_to 1    AM5 ON 
  -16.9520   11.2350   21.5950 O.3 0  0  0  0  0  0  0  0  0  0  0  0  # atno 1    bound_to 2    3    AM6 ON 
  -16.3776   12.0447   21.5716 H   0  0  0  0  0  0  0  0  0  0  0  0  # atno 2    bound_to 1    AM6 ON 
  -16.9925   10.8316   20.6884 H   0  0  0  0  0  0  0  0  0  0  0  0  # atno 3    bound_to 1    AM6 ON 
  -17.8737   11.4885   21.8886 LP  0  0  0  0  0  0  0  0  0  0  0  0  # atno 4    bound_to 1    AM6 ON 
  -16.5679   10.5723   22.2379 LP  0  0  0  0  0  0  0  0  0  0  0  0  # atno 5    bound_to 1    AM6 ON 
  -14.9200   12.9840   21.7870 O.3 0  0  0  0  0  0  0  0  0  0  0  0  # atno 1    bound_to 2    3    AM7 ON 
  -14.0550   12.7033   21.3881 H   0  0  0  0  0  0  0  0  0  0  0  0  # atno 2    bound_to 1    AM7 ON 
  -14.7584   13.6954   22.4609 H   0  0  0  0  0  0  0  0  0  0  0  0  # atno 3    bound_to 1    AM7 ON 
  -15.3538   12.1987   22.2288 LP  0  0  0  0  0  0  0  0  0  0  0  0  # atno 4    bound_to 1    AM7 ON 
  -15.5200   13.3356   21.0684 LP  0  0  0  0  0  0  0  0  0  0  0  0  # atno 5    bound_to 1    AM7 ON 

> <Gold.Score>
     Score         DG    S(hbond)    S(metal)    S(lipo)     H(rot)  DE(clash)    DE(int)    S(bar)      intcor
     49.18     -49.40      14.33        0.00     118.94       1.51       0.15       0.08      14.00       0.00

> <Gold.Chemscore.Fitness>
49.1819

> <Gold.Chemscore.DG>
-49.4023

> <Gold.Chemscore.ZeroCoef>
-5.4800

> <Gold.Chemscore.Hbond>
14.3320

> <Gold.Chemscore.Metal>
0.0000

> <Gold.Chemscore.Lipo>
118.9404

> <Gold.Chemscore.Internal_Hbond>
0.0000

> <Gold.Chemscore.DEClash>
0.1452

> <Gold.Chemscore.DEInternal>
0.0751

> <Gold.Chemscore.Rot>
1.5089

> <Gold.Chemscore.Internal.Correction>
0.0040

> <Gold.Chemscore.SBar>
14.0000

> <Gold.Chemscore.Hbonds>
donor molecule, donor type, donor heavy atom, donor atom, acceptor molecule, acceptor atom, score
     AM1  H     1     2      AM6     1  0.98
     AM2  H     1     2       P1   358  0.93
     AM3  H     1     2       P1   701  0.70
     AM4  H     1     2       P1   267  1.00
     AM4  H     1     3       P1   238  1.00
     AM5  H     1     3       L1     3  0.99
     AM6  H     1     2      AM7     1  0.98
     AM6  H     1     3       P1   634  0.99
     AM7  H     1     2       P1   419  1.00
     AM7  H     1     3      AM4     1  0.98
      P1  H   701  1501      AM5     1  0.99
      P1  H   695  1497       L1     4  1.00
      P1  H   358  1251      AM1     1  0.94
      P1  H   416  1258      AM2     1  0.87
      P1  H   669  1470      AM3     1  0.98

> <Gold.Chemscore.Hbond.Weighted>
-47.8690

> <Gold.Chemscore.Metal.Weighted>
-0.0000

> <Gold.Chemscore.Lipo.Weighted>
-13.9160

> <Gold.Chemscore.Internal_Hbond.Weighted>
0.0000

> <Gold.Chemscore.DEClash.Weighted>
0.1452

> <Gold.Chemscore.DEInternal.Weighted>
0.0751

> <Gold.Chemscore.Rot.Weighted>
3.8628

> <Gold.Chemscore.Internal.Correction.Weighted>
0.0040

