#       Name:                F367-D373D5A37EBA37B9-D373D5A37EBA37B9-NMX
#       Creating user name   iorga
#       Creation time:       Wed Nov 27 16:01:53 2019


#       File generated by GOLD software.
#

@<TRIPOS>MOLECULE
F367-D373D5A37EBA37B9-D373D5A37EBA37B9-NMX|ligands_smiles_3D-hash|mol2|379|dock15
    35    36     1
SMALL
NO_CHARGES


@<TRIPOS>ATOM
      1 C1         -18.4580  12.2590  35.0999 C.3            1 <1>                0.0000
      2 C2         -19.4064  12.6349  33.9549 C.3            1 <1>                0.0000
      3 N3         -18.6863  12.9402  32.7339 N.pl3          1 <1>                0.0000
      4 C4         -18.7163  14.0989  31.9884 C.2            1 <1>                0.0000
      5 C5         -17.8719  13.9284  30.9272 C.2            1 <1>                0.0000
      6 C6         -17.5361  14.8954  29.8239 C.3            1 <1>                0.0000
      7 N7         -17.9836  14.4155  28.5219 N.am           1 <1>                0.0000
      8 C8         -18.9107  15.0083  27.7516 C.2            1 <1>                0.0000
      9 O9         -19.5317  16.0167  28.0883 O.2            1 <1>                0.0000
     10 C10        -19.2010  14.3262  26.4458 C.ar           1 <1>                0.0000
     11 C11        -19.9665  14.9526  25.4352 C.ar           1 <1>                0.0000
     12 C12        -20.2263  14.2522  24.2415 C.ar           1 <1>                0.0000
     13 C13        -19.7177  12.9460  24.1058 C.ar           1 <1>                0.0000
     14 N14        -18.9962  12.3293  25.0653 N.ar           1 <1>                0.0000
     15 C15        -18.7517  13.0074  26.2080 C.ar           1 <1>                0.0000
     16 C16        -17.3649  12.6115  31.1186 C.2            1 <1>                0.0000
     17 N17        -17.8517  12.0239  32.1992 N.2            1 <1>                0.0000
     18 H18        -19.0184  12.0166  36.0027 H              1 <1>                0.0000
     19 H19        -17.8518  11.3905  34.8402 H              1 <1>                0.0000
     20 H20        -17.7825  13.0804  35.3400 H              1 <1>                0.0000
     21 H21        -20.0111  13.4998  34.2302 H              1 <1>                0.0000
     22 H22        -20.0978  11.8151  33.7562 H              1 <1>                0.0000
     23 H23        -19.3281  14.9430  32.2716 H              1 <1>                0.0000
     24 H24        -16.4646  15.0998  29.7929 H              1 <1>                0.0000
     25 H25        -18.0127  15.8601  29.9985 H              1 <1>                0.0000
     26 H26        -17.5461  13.5750  28.1736 H              1 <1>                0.0000
     27 H27        -20.3566  15.9518  25.5636 H              1 <1>                0.0000
     28 H28        -20.8048  14.7045  23.4498 H              1 <1>                0.0000
     29 H29        -19.8981  12.3799  23.2039 H              1 <1>                0.0000
     30 H30        -18.1746  12.4761  26.9508 H              1 <1>                0.0000
     31 H31        -16.6571  12.0698  30.5087 H              1 <1>                0.0000
     32 ****       -19.3564  16.4380  28.9781 LP             1 <1>                0.0000
     33 ****       -20.2114  16.4144  27.4720 LP             1 <1>                0.0000
     34 ****       -18.6531  11.3992  24.9345 LP             1 <1>                0.0000
     35 ****       -17.6474  11.1072  32.5426 LP             1 <1>                0.0000
@<TRIPOS>BOND
    1    1    2 1     
    2    1   18 1     
    3    1   19 1     
    4    1   20 1     
    5    2    3 1     
    6    2   21 1     
    7    2   22 1     
    8    3   17 1     
    9    3    4 1     
   10    4    5 2     
   11    4   23 1     
   12    5    6 1     
   13    5   16 1     
   14    6    7 1     
   15    6   24 1     
   16    6   25 1     
   17    7    8 am    
   18    7   26 1     
   19    8    9 2     
   20    8   10 1     
   21   10   15 ar    
   22   10   11 ar    
   23   11   12 ar    
   24   11   27 1     
   25   12   13 ar    
   26   12   28 1     
   27   13   14 ar    
   28   13   29 1     
   29   14   15 ar    
   30   15   30 1     
   31   16   17 2     
   32   16   31 1     
   33    9   32 1     
   34    9   33 1     
   35   14   34 1     
   36   17   35 1     
@<TRIPOS>SUBSTRUCTURE
      1 ****           1
@<TRIPOS>SET
LONE_PAIRS      STATIC     ATOMS    <user>   **** ""
4 32 33 34 35
DONOR_HYDROGENS      STATIC     ATOMS    <user>   **** ""
1 26
ATOM$BLUE        STATIC     ATOMS    COLORGROUP SYSTEM
4 32 33 34 35
ATOM$RED        STATIC     ATOMS    COLORGROUP SYSTEM
1 26
@<TRIPOS>COMMENT
> <Gold.Version>
5.7.1

> <Gold.Id.Protein>
5ENC|5ENC_protein|mol2

> <Gold.Protein.RotatedTorsions>
[ 1501  701  700  697 ] final   70.69 input   60.00 | X-H torsion
[ 1497  695  694  692 ] final  106.85 input   60.00 | X-H torsion
[ 1251  358  357  355 ] final   -0.39 input   60.00 | X-H torsion
[ 1470  669  668  665 ] final  -86.18 input   60.00 | X-H torsion

> <Gold.Protein.ActiveResidues>
 PRO28   PHE29   GLN31   PRO32   VAL33   TYR38   TYR41   PRO48   MET49   ASP50  
 ILE76   ASN79   SER80   TYR83   THR84   ILE91  

> <Gold.Protein.RotatedAtoms>
  -16.3664    9.5718   24.7100 H   0  0  0  0  0  0  0  0  0  0  0  0  # atno 1251 bound_to 358 
  -22.6093   10.6550   21.5635 H   0  0  0  0  0  0  0  0  0  0  0  0  # atno 1470 bound_to 669 
  -18.3704   10.4927   32.1909 H   0  0  0  0  0  0  0  0  0  0  0  0  # atno 1497 bound_to 695 
  -22.1311   10.3305   26.0898 H   0  0  0  0  0  0  0  0  0  0  0  0  # atno 1501 bound_to 701 
  -23.1635   10.5212   27.3331 LP  0  0  0  0  0  0  0  0  0  0  0  0  # atno 2046 bound_to 701 
  -22.9640   11.7201   26.2425 LP  0  0  0  0  0  0  0  0  0  0  0  0  # atno 2047 bound_to 701 
  -18.8460    9.0248   32.7074 LP  0  0  0  0  0  0  0  0  0  0  0  0  # atno 2052 bound_to 695 
  -19.9465   10.2097   32.4804 LP  0  0  0  0  0  0  0  0  0  0  0  0  # atno 2053 bound_to 695 
  -15.1485    8.5255   24.4453 LP  0  0  0  0  0  0  0  0  0  0  0  0  # atno 2056 bound_to 358 
  -14.8659   10.1337   24.4260 LP  0  0  0  0  0  0  0  0  0  0  0  0  # atno 2057 bound_to 358 

> <Gold.Protein.RotatedWaterAtoms>
  -17.7040   10.2320   24.0390 O.3 0  0  0  0  0  0  0  0  0  0  0  0  # atno 1    bound_to 2    3    AM1 ON 
  -17.6711   10.5203   23.0893 H   0  0  0  0  0  0  0  0  0  0  0  0  # atno 2    bound_to 1    AM1 ON 
  -18.2877   10.8500   24.5525 H   0  0  0  0  0  0  0  0  0  0  0  0  # atno 3    bound_to 1    AM1 ON 
  -16.7813   10.2476   24.4243 LP  0  0  0  0  0  0  0  0  0  0  0  0  # atno 4    bound_to 1    AM1 ON 
  -18.0721    9.3038   24.0930 LP  0  0  0  0  0  0  0  0  0  0  0  0  # atno 5    bound_to 1    AM1 ON 
  -13.7450   10.2720   23.0540 O.3 0  0  0  0  0  0  0  0  0  0  0  0  # atno 1    bound_to 2    3    AM2 ON 
  -14.4729   10.8157   22.6532 H   0  0  0  0  0  0  0  0  0  0  0  0  # atno 2    bound_to 1    AM2 ON 
  -14.0871    9.8038   23.8603 H   0  0  0  0  0  0  0  0  0  0  0  0  # atno 3    bound_to 1    AM2 ON 
  -12.9861   10.8697   23.3125 LP  0  0  0  0  0  0  0  0  0  0  0  0  # atno 4    bound_to 1    AM2 ON 
  -13.4264    9.5982   22.3873 LP  0  0  0  0  0  0  0  0  0  0  0  0  # atno 5    bound_to 1    AM2 ON 
  -21.1690   11.6250   24.3940 O.3 0  0  0  0  0  0  0  0  0  0  0  0  # atno 1    bound_to 2    3    AM3 OFF
  -21.4532   12.0738   23.5551 H   0  0  0  0  0  0  0  0  0  0  0  0  # atno 2    bound_to 1    AM3 OFF
  -20.6580   12.2654   24.9553 H   0  0  0  0  0  0  0  0  0  0  0  0  # atno 3    bound_to 1    AM3 OFF
  -20.5902   10.8402   24.1726 LP  0  0  0  0  0  0  0  0  0  0  0  0  # atno 4    bound_to 1    AM3 OFF
  -21.9762   11.3130   24.8951 LP  0  0  0  0  0  0  0  0  0  0  0  0  # atno 5    bound_to 1    AM3 OFF
  -14.6550   15.1580   23.4130 O.3 0  0  0  0  0  0  0  0  0  0  0  0  # atno 1    bound_to 2    3    AM4 ON 
  -15.4286   15.7012   23.7171 H   0  0  0  0  0  0  0  0  0  0  0  0  # atno 2    bound_to 1    AM4 ON 
  -13.8134   15.5615   23.7525 H   0  0  0  0  0  0  0  0  0  0  0  0  # atno 3    bound_to 1    AM4 ON 
  -14.6350   15.1368   22.4134 LP  0  0  0  0  0  0  0  0  0  0  0  0  # atno 4    bound_to 1    AM4 ON 
  -14.7433   14.2260   23.7645 LP  0  0  0  0  0  0  0  0  0  0  0  0  # atno 5    bound_to 1    AM4 ON 
  -23.6820   12.7820   28.0340 O.3 0  0  0  0  0  0  0  0  0  0  0  0  # atno 1    bound_to 2    3    AM5 ON 
  -24.2890   12.5626   28.7886 H   0  0  0  0  0  0  0  0  0  0  0  0  # atno 2    bound_to 1    AM5 ON 
  -23.3243   11.9425   27.6421 H   0  0  0  0  0  0  0  0  0  0  0  0  # atno 3    bound_to 1    AM5 ON 
  -22.9247   13.3433   28.3678 LP  0  0  0  0  0  0  0  0  0  0  0  0  # atno 4    bound_to 1    AM5 ON 
  -24.1883   13.2870   27.3349 LP  0  0  0  0  0  0  0  0  0  0  0  0  # atno 5    bound_to 1    AM5 ON 
  -16.9520   11.2350   21.5950 O.3 0  0  0  0  0  0  0  0  0  0  0  0  # atno 1    bound_to 2    3    AM6 ON 
  -17.0502   10.8326   20.6925 H   0  0  0  0  0  0  0  0  0  0  0  0  # atno 2    bound_to 1    AM6 ON 
  -16.3044   11.9868   21.5535 H   0  0  0  0  0  0  0  0  0  0  0  0  # atno 3    bound_to 1    AM6 ON 
  -16.6181   10.5423   22.2343 LP  0  0  0  0  0  0  0  0  0  0  0  0  # atno 4    bound_to 1    AM6 ON 
  -17.8391   11.5759   21.9063 LP  0  0  0  0  0  0  0  0  0  0  0  0  # atno 5    bound_to 1    AM6 ON 
  -14.9200   12.9840   21.7870 O.3 0  0  0  0  0  0  0  0  0  0  0  0  # atno 1    bound_to 2    3    AM7 ON 
  -14.8193   13.7178   22.4484 H   0  0  0  0  0  0  0  0  0  0  0  0  # atno 2    bound_to 1    AM7 ON 
  -14.0366   12.7804   21.3814 H   0  0  0  0  0  0  0  0  0  0  0  0  # atno 3    bound_to 1    AM7 ON 
  -15.5585   13.2660   21.0709 LP  0  0  0  0  0  0  0  0  0  0  0  0  # atno 4    bound_to 1    AM7 ON 
  -15.2724   12.1681   22.2454 LP  0  0  0  0  0  0  0  0  0  0  0  0  # atno 5    bound_to 1    AM7 ON 

> <Gold.Score>
     Score         DG    S(hbond)    S(metal)    S(lipo)     H(rot)  DE(clash)    DE(int)    S(bar)      intcor
     47.28     -47.69      12.19        0.00     145.95       1.40       0.29       0.13      12.00       0.00

> <Gold.Chemscore.Fitness>
47.2760

> <Gold.Chemscore.DG>
-47.6886

> <Gold.Chemscore.ZeroCoef>
-5.4800

> <Gold.Chemscore.Hbond>
12.1915

> <Gold.Chemscore.Metal>
0.0000

> <Gold.Chemscore.Lipo>
145.9471

> <Gold.Chemscore.Internal_Hbond>
0.0000

> <Gold.Chemscore.DEClash>
0.2875

> <Gold.Chemscore.DEInternal>
0.1250

> <Gold.Chemscore.Rot>
1.4011

> <Gold.Chemscore.Internal.Correction>
0.0032

> <Gold.Chemscore.SBar>
12.0000

> <Gold.Chemscore.Hbonds>
donor molecule, donor type, donor heavy atom, donor atom, acceptor molecule, acceptor atom, score
     AM1  H     1     2      AM6     1  0.98
     AM1  H     1     3       L1    14  0.87
     AM2  H     1     3       P1   358  0.86
     AM4  H     1     2       P1   238  0.96
     AM4  H     1     3       P1   267  0.96
     AM5  H     1     3       P1   701  0.97
     AM6  H     1     2       P1   634  1.00
     AM6  H     1     3      AM7     1  0.99
     AM7  H     1     2      AM4     1  0.99
     AM7  H     1     3       P1   419  0.99
      P1  H   695  1497       L1    17  0.86
      P1  H   358  1251      AM1     1  0.91
      P1  H   416  1258      AM2     1  0.84

> <Gold.Chemscore.Hbond.Weighted>
-40.7197

> <Gold.Chemscore.Metal.Weighted>
-0.0000

> <Gold.Chemscore.Lipo.Weighted>
-17.0758

> <Gold.Chemscore.Internal_Hbond.Weighted>
0.0000

> <Gold.Chemscore.DEClash.Weighted>
0.2875

> <Gold.Chemscore.DEInternal.Weighted>
0.1250

> <Gold.Chemscore.Rot.Weighted>
3.5869

> <Gold.Chemscore.Internal.Correction.Weighted>
0.0032

