#       Name:                F503-E5D2B756D6A1A11C-E5D2B756D6A1A11C-NMX
#       Creating user name   iorga
#       Creation time:       Wed Nov 27 14:09:58 2019


#       File generated by GOLD software.
#

@<TRIPOS>MOLECULE
F503-E5D2B756D6A1A11C-E5D2B756D6A1A11C-NMX|ligands_smiles_3D-hash|mol2|518|dock5
    31    32     1
SMALL
NO_CHARGES


@<TRIPOS>ATOM
      1 C1         -20.0209  15.0706  32.9649 C.3            1 <1>                0.0000
      2 N2         -19.5096  14.8289  31.6248 N.am           1 <1>                0.0000
      3 C3         -19.0272  13.6511  31.2019 C.2            1 <1>                0.0000
      4 O4         -18.9717  12.6500  31.9162 O.2            1 <1>                0.0000
      5 C5         -18.5678  13.6430  29.7787 C.3            1 <1>                0.0000
      6 C6         -19.6858  13.2750  28.8015 C.3            1 <1>                0.0000
      7 C7         -19.3459  13.5965  27.3540 C.ar           1 <1>                0.0000
      8 C8         -18.3301  12.8703  26.6962 C.ar           1 <1>                0.0000
      9 C9         -18.0048  13.1577  25.3566 C.ar           1 <1>                0.0000
     10 C10        -18.6953  14.1720  24.6665 C.ar           1 <1>                0.0000
     11 C11        -19.7114  14.8980  25.3168 C.ar           1 <1>                0.0000
     12 C12        -20.0383  14.6121  26.6569 C.ar           1 <1>                0.0000
     13 F13        -21.0158  15.3219  27.2702 F              1 <1>                0.0000
     14 C14        -17.4812  14.6349  29.4021 C.3            1 <1>                0.0000
     15 C15        -17.1392  13.1762  29.5448 C.3            1 <1>                0.0000
     16 H16        -20.3492  16.1058  33.0562 H              1 <1>                0.0000
     17 H17        -20.8720  14.4226  33.1783 H              1 <1>                0.0000
     18 H18        -19.2486  14.8901  33.7137 H              1 <1>                0.0000
     19 H19        -19.5231  15.6035  30.9771 H              1 <1>                0.0000
     20 H20        -20.5973  13.7986  29.0910 H              1 <1>                0.0000
     21 H21        -19.9274  12.2130  28.8758 H              1 <1>                0.0000
     22 H22        -17.7952  12.0911  27.2192 H              1 <1>                0.0000
     23 H23        -17.2251  12.6001  24.8589 H              1 <1>                0.0000
     24 H24        -18.4458  14.3931  23.6391 H              1 <1>                0.0000
     25 H25        -20.2409  15.6762  24.7873 H              1 <1>                0.0000
     26 H26        -17.5104  15.0542  28.3984 H              1 <1>                0.0000
     27 H27        -17.1057  15.3091  30.1699 H              1 <1>                0.0000
     28 H28        -16.5397  12.8890  30.4070 H              1 <1>                0.0000
     29 H29        -16.9233  12.6209  28.6348 H              1 <1>                0.0000
     30 ****       -19.2959  12.6914  32.8613 LP             1 <1>                0.0000
     31 ****       -18.6025  11.7953  31.5513 LP             1 <1>                0.0000
@<TRIPOS>BOND
    1    1    2 1     
    2    1   16 1     
    3    1   17 1     
    4    1   18 1     
    5    2    3 am    
    6    2   19 1     
    7    3    4 2     
    8    3    5 1     
    9    5   15 1     
   10    5    6 1     
   11    5   14 1     
   12    6    7 1     
   13    6   20 1     
   14    6   21 1     
   15    7   12 ar    
   16    7    8 ar    
   17    8    9 ar    
   18    8   22 1     
   19    9   10 ar    
   20    9   23 1     
   21   10   11 ar    
   22   10   24 1     
   23   11   12 ar    
   24   11   25 1     
   25   12   13 1     
   26   14   15 1     
   27   14   26 1     
   28   14   27 1     
   29   15   28 1     
   30   15   29 1     
   31    4   30 1     
   32    4   31 1     
@<TRIPOS>SUBSTRUCTURE
      1 ****           1
@<TRIPOS>SET
LONE_PAIRS      STATIC     ATOMS    <user>   **** ""
2 30 31
DONOR_HYDROGENS      STATIC     ATOMS    <user>   **** ""
1 19
ATOM$BLUE        STATIC     ATOMS    COLORGROUP SYSTEM
2 30 31
ATOM$RED        STATIC     ATOMS    COLORGROUP SYSTEM
1 19
@<TRIPOS>COMMENT
> <Gold.Version>
5.7.1

> <Gold.Id.Protein>
5ENC|5ENC_protein|mol2

> <Gold.Protein.RotatedTorsions>
[ 1501  701  700  697 ] final  -79.68 input   60.00 | X-H torsion
[ 1497  695  694  692 ] final  151.29 input   60.00 | X-H torsion
[ 1251  358  357  355 ] final   -3.22 input   60.00 | X-H torsion
[ 1470  669  668  665 ] final   38.95 input   60.00 | X-H torsion

> <Gold.Protein.ActiveResidues>
 PRO28   PHE29   GLN31   PRO32   VAL33   TYR38   TYR41   PRO48   MET49   ASP50  
 ILE76   ASN79   SER80   TYR83   THR84   ILE91  

> <Gold.Protein.RotatedAtoms>
  -16.3733    9.5261   24.7103 H   0  0  0  0  0  0  0  0  0  0  0  0  # atno 1251 bound_to 358 
  -21.6683   11.0501   22.8751 H   0  0  0  0  0  0  0  0  0  0  0  0  # atno 1470 bound_to 669 
  -19.0073   10.8017   32.1760 H   0  0  0  0  0  0  0  0  0  0  0  0  # atno 1497 bound_to 695 
  -23.3493   10.9719   27.2651 H   0  0  0  0  0  0  0  0  0  0  0  0  # atno 1501 bound_to 701 
  -22.6316   11.5451   25.9218 LP  0  0  0  0  0  0  0  0  0  0  0  0  # atno 2046 bound_to 701 
  -22.2691   10.0503   26.4702 LP  0  0  0  0  0  0  0  0  0  0  0  0  # atno 2047 bound_to 701 
  -18.2659    9.3945   32.5197 LP  0  0  0  0  0  0  0  0  0  0  0  0  # atno 2052 bound_to 695 
  -19.8851    9.5288   32.6831 LP  0  0  0  0  0  0  0  0  0  0  0  0  # atno 2053 bound_to 695 
  -15.1060    8.5425   24.4374 LP  0  0  0  0  0  0  0  0  0  0  0  0  # atno 2056 bound_to 358 
  -14.9014   10.1627   24.4336 LP  0  0  0  0  0  0  0  0  0  0  0  0  # atno 2057 bound_to 358 

> <Gold.Protein.RotatedWaterAtoms>
  -17.7040   10.2320   24.0390 O.3 0  0  0  0  0  0  0  0  0  0  0  0  # atno 1    bound_to 2    3    AM1 ON 
  -17.6494   10.6722   23.1506 H   0  0  0  0  0  0  0  0  0  0  0  0  # atno 2    bound_to 1    AM1 ON 
  -18.6568   10.1319   24.3008 H   0  0  0  0  0  0  0  0  0  0  0  0  # atno 3    bound_to 1    AM1 ON 
  -17.2287   10.7915   24.7180 LP  0  0  0  0  0  0  0  0  0  0  0  0  # atno 4    bound_to 1    AM1 ON 
  -17.2749    9.3300   23.9911 LP  0  0  0  0  0  0  0  0  0  0  0  0  # atno 5    bound_to 1    AM1 ON 
  -13.7450   10.2720   23.0540 O.3 0  0  0  0  0  0  0  0  0  0  0  0  # atno 1    bound_to 2    3    AM2 ON 
  -14.4641   10.8445   22.6782 H   0  0  0  0  0  0  0  0  0  0  0  0  # atno 2    bound_to 1    AM2 ON 
  -14.1196    9.7003   23.7745 H   0  0  0  0  0  0  0  0  0  0  0  0  # atno 3    bound_to 1    AM2 ON 
  -13.0208   10.8502   23.4298 LP  0  0  0  0  0  0  0  0  0  0  0  0  # atno 4    bound_to 1    AM2 ON 
  -13.3679    9.6930   22.3312 LP  0  0  0  0  0  0  0  0  0  0  0  0  # atno 5    bound_to 1    AM2 ON 
  -21.1690   11.6250   24.3940 O.3 0  0  0  0  0  0  0  0  0  0  0  0  # atno 1    bound_to 2    3    AM3 ON 
  -21.5071   11.3738   25.2932 H   0  0  0  0  0  0  0  0  0  0  0  0  # atno 2    bound_to 1    AM3 ON 
  -20.5243   12.3755   24.4805 H   0  0  0  0  0  0  0  0  0  0  0  0  # atno 3    bound_to 1    AM3 ON 
  -21.9350   11.9084   23.8171 LP  0  0  0  0  0  0  0  0  0  0  0  0  # atno 4    bound_to 1    AM3 ON 
  -20.7116   10.8389   23.9782 LP  0  0  0  0  0  0  0  0  0  0  0  0  # atno 5    bound_to 1    AM3 ON 
  -14.6550   15.1580   23.4130 O.3 0  0  0  0  0  0  0  0  0  0  0  0  # atno 1    bound_to 2    3    AM4 ON 
  -13.8088   15.6775   23.4026 H   0  0  0  0  0  0  0  0  0  0  0  0  # atno 2    bound_to 1    AM4 ON 
  -15.4145   15.7664   23.6112 H   0  0  0  0  0  0  0  0  0  0  0  0  # atno 3    bound_to 1    AM4 ON 
  -14.6027   14.4497   24.1170 LP  0  0  0  0  0  0  0  0  0  0  0  0  # atno 4    bound_to 1    AM4 ON 
  -14.7946   14.7305   22.5198 LP  0  0  0  0  0  0  0  0  0  0  0  0  # atno 5    bound_to 1    AM4 ON 
  -23.6820   12.7820   28.0340 O.3 0  0  0  0  0  0  0  0  0  0  0  0  # atno 1    bound_to 2    3    AM5 OFF
  -24.0835   12.5414   28.9097 H   0  0  0  0  0  0  0  0  0  0  0  0  # atno 2    bound_to 1    AM5 OFF
  -24.3953   12.8291   27.3446 H   0  0  0  0  0  0  0  0  0  0  0  0  # atno 3    bound_to 1    AM5 OFF
  -23.0112   12.0879   27.7728 LP  0  0  0  0  0  0  0  0  0  0  0  0  # atno 4    bound_to 1    AM5 OFF
  -23.2302   13.6711   28.1075 LP  0  0  0  0  0  0  0  0  0  0  0  0  # atno 5    bound_to 1    AM5 OFF
  -16.9520   11.2350   21.5950 O.3 0  0  0  0  0  0  0  0  0  0  0  0  # atno 1    bound_to 2    3    AM6 ON 
  -16.8987   10.6923   20.7651 H   0  0  0  0  0  0  0  0  0  0  0  0  # atno 2    bound_to 1    AM6 ON 
  -16.3093   11.9900   21.5386 H   0  0  0  0  0  0  0  0  0  0  0  0  # atno 3    bound_to 1    AM6 ON 
  -16.7254   10.6624   22.3829 LP  0  0  0  0  0  0  0  0  0  0  0  0  # atno 4    bound_to 1    AM6 ON 
  -17.8795   11.5939   21.6996 LP  0  0  0  0  0  0  0  0  0  0  0  0  # atno 5    bound_to 1    AM6 ON 
  -14.9200   12.9840   21.7870 O.3 0  0  0  0  0  0  0  0  0  0  0  0  # atno 1    bound_to 2    3    AM7 ON 
  -14.0115   12.6853   21.5197 H   0  0  0  0  0  0  0  0  0  0  0  0  # atno 2    bound_to 1    AM7 ON 
  -14.8455   13.6864   22.4852 H   0  0  0  0  0  0  0  0  0  0  0  0  # atno 3    bound_to 1    AM7 ON 
  -15.4332   12.2063   22.1500 LP  0  0  0  0  0  0  0  0  0  0  0  0  # atno 4    bound_to 1    AM7 ON 
  -15.3967   13.3553   20.9902 LP  0  0  0  0  0  0  0  0  0  0  0  0  # atno 5    bound_to 1    AM7 ON 

> <Gold.Score>
     Score         DG    S(hbond)    S(metal)    S(lipo)     H(rot)  DE(clash)    DE(int)    S(bar)      intcor
     47.28     -47.50      12.37        0.00     139.32       1.40       0.07       0.15      12.00       0.67

> <Gold.Chemscore.Fitness>
47.2792

> <Gold.Chemscore.DG>
-47.4978

> <Gold.Chemscore.ZeroCoef>
-5.4800

> <Gold.Chemscore.Hbond>
12.3653

> <Gold.Chemscore.Metal>
0.0000

> <Gold.Chemscore.Lipo>
139.3209

> <Gold.Chemscore.Internal_Hbond>
0.0000

> <Gold.Chemscore.DEClash>
0.0657

> <Gold.Chemscore.DEInternal>
0.1529

> <Gold.Chemscore.Rot>
1.3996

> <Gold.Chemscore.Internal.Correction>
0.6696

> <Gold.Chemscore.SBar>
12.0000

> <Gold.Chemscore.Hbonds>
donor molecule, donor type, donor heavy atom, donor atom, acceptor molecule, acceptor atom, score
     AM1  H     1     2      AM6     1  0.98
     AM2  H     1     3       P1   358  0.89
     AM3  H     1     2       P1   701  0.79
     AM4  H     1     2       P1   267  1.00
     AM4  H     1     3       P1   238  1.00
     AM6  H     1     2       P1   634  0.99
     AM6  H     1     3      AM7     1  0.98
     AM7  H     1     2       P1   419  1.00
     AM7  H     1     3      AM4     1  0.98
      P1  H   695  1497       L1     4  1.00
      P1  H   358  1251      AM1     1  0.94
      P1  H   416  1258      AM2     1  0.85
      P1  H   669  1470      AM3     1  0.97

> <Gold.Chemscore.Hbond.Weighted>
-41.3003

> <Gold.Chemscore.Metal.Weighted>
-0.0000

> <Gold.Chemscore.Lipo.Weighted>
-16.3005

> <Gold.Chemscore.Internal_Hbond.Weighted>
0.0000

> <Gold.Chemscore.DEClash.Weighted>
0.0657

> <Gold.Chemscore.DEInternal.Weighted>
0.1529

> <Gold.Chemscore.Rot.Weighted>
3.5830

> <Gold.Chemscore.Internal.Correction.Weighted>
0.6696

