#       Name:                F5-FC2FDD6DFD3A0CA1-D30AFCAD85926395-NMX
#       Creating user name   iorga
#       Creation time:       Wed Nov 27 11:26:56 2019


#       File generated by GOLD software.
#

@<TRIPOS>MOLECULE
F5-FC2FDD6DFD3A0CA1-D30AFCAD85926395-NMX|ligands_smiles_3D-hash|mol2|5|dock33
    27    27     1
SMALL
NO_CHARGES


@<TRIPOS>ATOM
      1 Br1        -17.8076  13.4693  31.4909 Br             1 <1>                0.0000
      2 C2         -18.2504  13.4241  29.6405 C.ar           1 <1>                0.0000
      3 C3         -19.0197  14.4592  29.0764 C.ar           1 <1>                0.0000
      4 C4         -19.3567  14.4418  27.6984 C.ar           1 <1>                0.0000
      5 O5         -20.1064  15.4262  27.0873 O.3            1 <1>                0.0000
      6 C6         -20.5933  16.4971  27.8818 C.3            1 <1>                0.0000
      7 C7         -18.9066  13.3619  26.8985 C.ar           1 <1>                0.0000
      8 C8         -19.2390  13.2978  25.4133 C.3            1 <1>                0.0000
      9 C9         -20.4544  12.3866  25.2302 C.2            1 <1>                0.0000
     10 O10        -20.3455  11.4429  24.4167 O.co2          1 <1>                0.0000
     11 C11        -18.1349  12.3283  27.4720 C.ar           1 <1>                0.0000
     12 C12        -17.8074  12.3577  28.8389 C.ar           1 <1>                0.0000
     13 H13        -19.3404  15.2591  29.7257 H              1 <1>                0.0000
     14 H14        -21.1646  17.1789  27.2524 H              1 <1>                0.0000
     15 H15        -21.2584  16.1399  28.6691 H              1 <1>                0.0000
     16 H16        -19.7762  17.0663  28.3272 H              1 <1>                0.0000
     17 H17        -18.3900  12.9022  24.8543 H              1 <1>                0.0000
     18 H18        -19.4441  14.2901  25.0104 H              1 <1>                0.0000
     19 H19        -17.7955  11.5045  26.8612 H              1 <1>                0.0000
     20 H20        -17.2180  11.5627  29.2708 H              1 <1>                0.0000
     21 O21        -21.4702  12.6467  25.9122 O.co2          1 <1>                0.0000
     22 ****       -20.9005  14.9796  26.6750 LP             1 <1>                0.0000
     23 ****       -19.5384  15.8264  26.3682 LP             1 <1>                0.0000
     24 ****       -21.1129  10.8190  24.2689 LP             1 <1>                0.0000
     25 ****       -19.4909  11.3121  23.9141 LP             1 <1>                0.0000
     26 ****       -22.2871  12.0758  25.8302 LP             1 <1>                0.0000
     27 ****       -21.4653  13.4254  26.5395 LP             1 <1>                0.0000
@<TRIPOS>BOND
    1    1    2 1     
    2    2   12 ar    
    3    2    3 ar    
    4    3    4 ar    
    5    3   13 1     
    6    4    5 1     
    7    4    7 ar    
    8    5    6 1     
    9    6   14 1     
   10    6   15 1     
   11    6   16 1     
   12    7    8 1     
   13    7   11 ar    
   14    8    9 1     
   15    8   17 1     
   16    8   18 1     
   17    9   10 ar    
   18    9   21 ar    
   19   11   12 ar    
   20   11   19 1     
   21   12   20 1     
   22    5   22 1     
   23    5   23 1     
   24   10   24 1     
   25   10   25 1     
   26   21   26 1     
   27   21   27 1     
@<TRIPOS>SUBSTRUCTURE
      1 ****           1
@<TRIPOS>SET
LONE_PAIRS      STATIC     ATOMS    <user>   **** ""
6 22 23 24 25 26 27
ATOM$BLUE        STATIC     ATOMS    COLORGROUP SYSTEM
6 22 23 24 25 26 27
@<TRIPOS>COMMENT
> <Gold.Version>
5.7.1

> <Gold.Id.Protein>
5ENC|5ENC_protein|mol2

> <Gold.Protein.RotatedTorsions>
[ 1501  701  700  697 ] final  162.05 input   60.00 | X-H torsion
[ 1497  695  694  692 ] final  119.04 input   60.00 | X-H torsion
[ 1251  358  357  355 ] final   -3.82 input   60.00 | X-H torsion
[ 1470  669  668  665 ] final   60.24 input   60.00 | X-H torsion

> <Gold.Protein.ActiveResidues>
 PRO28   PHE29   GLN31   PRO32   VAL33   TYR38   TYR41   PRO48   MET49   ASP50  
 ILE76   ASN79   SER80   TYR83   THR84   ILE91  

> <Gold.Protein.RotatedAtoms>
  -16.3745    9.5163   24.7103 H   0  0  0  0  0  0  0  0  0  0  0  0  # atno 1251 bound_to 358 
  -21.5094   11.3476   22.7981 H   0  0  0  0  0  0  0  0  0  0  0  0  # atno 1470 bound_to 669 
  -18.5190   10.6231   32.1694 H   0  0  0  0  0  0  0  0  0  0  0  0  # atno 1497 bound_to 695 
  -22.6530   11.5550   25.9391 H   0  0  0  0  0  0  0  0  0  0  0  0  # atno 1501 bound_to 701 
  -22.2568   10.0606   26.4468 LP  0  0  0  0  0  0  0  0  0  0  0  0  # atno 2046 bound_to 701 
  -23.3452   10.9475   27.2806 LP  0  0  0  0  0  0  0  0  0  0  0  0  # atno 2047 bound_to 701 
  -18.6579    9.0798   32.6666 LP  0  0  0  0  0  0  0  0  0  0  0  0  # atno 2052 bound_to 695 
  -19.9849   10.0234   32.5428 LP  0  0  0  0  0  0  0  0  0  0  0  0  # atno 2053 bound_to 695 
  -15.0969    8.5465   24.4357 LP  0  0  0  0  0  0  0  0  0  0  0  0  # atno 2056 bound_to 358 
  -14.9092   10.1686   24.4353 LP  0  0  0  0  0  0  0  0  0  0  0  0  # atno 2057 bound_to 358 

> <Gold.Protein.RotatedWaterAtoms>
  -17.7040   10.2320   24.0390 O.3 0  0  0  0  0  0  0  0  0  0  0  0  # atno 1    bound_to 2    3    AM1 ON 
  -18.6539   10.3141   24.3164 H   0  0  0  0  0  0  0  0  0  0  0  0  # atno 2    bound_to 1    AM1 ON 
  -17.5621   10.7313   23.1923 H   0  0  0  0  0  0  0  0  0  0  0  0  # atno 3    bound_to 1    AM1 ON 
  -17.4798    9.2676   23.8988 LP  0  0  0  0  0  0  0  0  0  0  0  0  # atno 4    bound_to 1    AM1 ON 
  -17.1145   10.6110   24.7523 LP  0  0  0  0  0  0  0  0  0  0  0  0  # atno 5    bound_to 1    AM1 ON 
  -13.7450   10.2720   23.0540 O.3 0  0  0  0  0  0  0  0  0  0  0  0  # atno 1    bound_to 2    3    AM2 ON 
  -14.1932    9.7370   23.7604 H   0  0  0  0  0  0  0  0  0  0  0  0  # atno 2    bound_to 1    AM2 ON 
  -14.1770   11.1640   22.9901 H   0  0  0  0  0  0  0  0  0  0  0  0  # atno 3    bound_to 1    AM2 ON 
  -13.8251    9.7992   22.1765 LP  0  0  0  0  0  0  0  0  0  0  0  0  # atno 4    bound_to 1    AM2 ON 
  -12.7786   10.3854   23.2845 LP  0  0  0  0  0  0  0  0  0  0  0  0  # atno 5    bound_to 1    AM2 ON 
  -21.1690   11.6250   24.3940 O.3 0  0  0  0  0  0  0  0  0  0  0  0  # atno 1    bound_to 2    3    AM3 OFF
  -20.9900   10.7252   24.7740 H   0  0  0  0  0  0  0  0  0  0  0  0  # atno 2    bound_to 1    AM3 OFF
  -21.6381   12.1821   25.0692 H   0  0  0  0  0  0  0  0  0  0  0  0  # atno 3    bound_to 1    AM3 OFF
  -21.7423   11.5349   23.5796 LP  0  0  0  0  0  0  0  0  0  0  0  0  # atno 4    bound_to 1    AM3 OFF
  -20.3036   12.0602   24.1459 LP  0  0  0  0  0  0  0  0  0  0  0  0  # atno 5    bound_to 1    AM3 OFF
  -14.6550   15.1580   23.4130 O.3 0  0  0  0  0  0  0  0  0  0  0  0  # atno 1    bound_to 2    3    AM4 ON 
  -13.8096   15.6788   23.4020 H   0  0  0  0  0  0  0  0  0  0  0  0  # atno 2    bound_to 1    AM4 ON 
  -15.4150   15.7648   23.6143 H   0  0  0  0  0  0  0  0  0  0  0  0  # atno 3    bound_to 1    AM4 ON 
  -14.6001   14.4481   24.1152 LP  0  0  0  0  0  0  0  0  0  0  0  0  # atno 4    bound_to 1    AM4 ON 
  -14.7960   14.7324   22.5191 LP  0  0  0  0  0  0  0  0  0  0  0  0  # atno 5    bound_to 1    AM4 ON 
  -23.6820   12.7820   28.0340 O.3 0  0  0  0  0  0  0  0  0  0  0  0  # atno 1    bound_to 2    3    AM5 ON 
  -22.9229   12.8529   27.3978 H   0  0  0  0  0  0  0  0  0  0  0  0  # atno 2    bound_to 1    AM5 ON 
  -23.5861   11.9532   28.5727 H   0  0  0  0  0  0  0  0  0  0  0  0  # atno 3    bound_to 1    AM5 ON 
  -24.5420   12.7509   27.5246 LP  0  0  0  0  0  0  0  0  0  0  0  0  # atno 4    bound_to 1    AM5 ON 
  -23.6830   13.5763   28.6416 LP  0  0  0  0  0  0  0  0  0  0  0  0  # atno 5    bound_to 1    AM5 ON 
  -16.9520   11.2350   21.5950 O.3 0  0  0  0  0  0  0  0  0  0  0  0  # atno 1    bound_to 2    3    AM6 ON 
  -16.2922   11.9708   21.4986 H   0  0  0  0  0  0  0  0  0  0  0  0  # atno 2    bound_to 1    AM6 ON 
  -17.0887   10.7956   20.7149 H   0  0  0  0  0  0  0  0  0  0  0  0  # atno 3    bound_to 1    AM6 ON 
  -17.8213   11.6072   21.9203 LP  0  0  0  0  0  0  0  0  0  0  0  0  # atno 4    bound_to 1    AM6 ON 
  -16.6096   10.5642   22.2529 LP  0  0  0  0  0  0  0  0  0  0  0  0  # atno 5    bound_to 1    AM6 ON 
  -14.9200   12.9840   21.7870 O.3 0  0  0  0  0  0  0  0  0  0  0  0  # atno 1    bound_to 2    3    AM7 ON 
  -14.0160   12.7232   21.4695 H   0  0  0  0  0  0  0  0  0  0  0  0  # atno 2    bound_to 1    AM7 ON 
  -14.8361   13.6857   22.4847 H   0  0  0  0  0  0  0  0  0  0  0  0  # atno 3    bound_to 1    AM7 ON 
  -15.3815   12.1847   22.1719 LP  0  0  0  0  0  0  0  0  0  0  0  0  # atno 4    bound_to 1    AM7 ON 
  -15.4533   13.3393   21.0193 LP  0  0  0  0  0  0  0  0  0  0  0  0  # atno 5    bound_to 1    AM7 ON 

> <Gold.Score>
     Score         DG    S(hbond)    S(metal)    S(lipo)     H(rot)  DE(clash)    DE(int)    S(bar)      intcor
     46.42     -46.91      13.26        0.00     114.64       1.67       0.12       0.37      12.00       0.00

> <Gold.Chemscore.Fitness>
46.4209

> <Gold.Chemscore.DG>
-46.9070

> <Gold.Chemscore.ZeroCoef>
-5.4800

> <Gold.Chemscore.Hbond>
13.2603

> <Gold.Chemscore.Metal>
0.0000

> <Gold.Chemscore.Lipo>
114.6367

> <Gold.Chemscore.Internal_Hbond>
0.0000

> <Gold.Chemscore.DEClash>
0.1179

> <Gold.Chemscore.DEInternal>
0.3682

> <Gold.Chemscore.Rot>
1.6699

> <Gold.Chemscore.Internal.Correction>
0.0002

> <Gold.Chemscore.SBar>
12.0000

> <Gold.Chemscore.Hbonds>
donor molecule, donor type, donor heavy atom, donor atom, acceptor molecule, acceptor atom, score
     AM1  H     1     2       L1    10  0.91
     AM1  H     1     3      AM6     1  0.99
     AM2  H     1     2       P1   358  0.95
     AM4  H     1     2       P1   267  1.00
     AM4  H     1     3       P1   238  1.00
     AM5  H     1     2       L1    21  0.94
     AM6  H     1     2      AM7     1  0.98
     AM6  H     1     3       P1   634  1.00
     AM7  H     1     2       P1   419  1.00
     AM7  H     1     3      AM4     1  0.98
      P1  H   701  1501       L1    21  0.81
      P1  H   358  1251      AM1     1  0.90
      P1  H   416  1258      AM2     1  0.85
      P1  H   669  1470       L1    10  0.96

> <Gold.Chemscore.Hbond.Weighted>
-44.2895

> <Gold.Chemscore.Metal.Weighted>
-0.0000

> <Gold.Chemscore.Lipo.Weighted>
-13.4125

> <Gold.Chemscore.Internal_Hbond.Weighted>
0.0000

> <Gold.Chemscore.DEClash.Weighted>
0.1179

> <Gold.Chemscore.DEInternal.Weighted>
0.3682

> <Gold.Chemscore.Rot.Weighted>
4.2750

> <Gold.Chemscore.Internal.Correction.Weighted>
0.0002

