#       Name:                F650-07E282BFFED46B26-07E282BFFED46B26-NMX
#       Creating user name   iorga
#       Creation time:       Wed Nov 27 12:15:39 2019


#       File generated by GOLD software.
#

@<TRIPOS>MOLECULE
F650-07E282BFFED46B26-07E282BFFED46B26-NMX|ligands_smiles_3D-hash|mol2|667|dock32
    26    27     1
SMALL
NO_CHARGES


@<TRIPOS>ATOM
      1 O1         -20.8753  13.7653  28.2209 O.2            1 <1>                0.0000
      2 C2         -19.6445  13.7656  28.1887 C.2            1 <1>                0.0000
      3 N3         -18.8887  13.5402  29.2872 N.am           1 <1>                0.0000
      4 C4         -19.4757  13.3362  30.6309 C.3            1 <1>                0.0000
      5 C5         -18.2817  13.2872  31.5843 C.3            1 <1>                0.0000
      6 C6         -17.1419  12.7702  30.7195 C.3            1 <1>                0.0000
      7 C7         -17.4377  13.3497  29.3365 C.3            1 <1>                0.0000
      8 C8         -18.9544  13.9825  26.8731 C.2            1 <1>                0.0000
      9 C9         -18.6475  12.9738  25.9193 C.2            1 <1>                0.0000
     10 N10        -18.0930  13.4941  24.8330 N.2            1 <1>                0.0000
     11 N11        -18.0757  14.8254  25.0724 N.pl3          1 <1>                0.0000
     12 C12        -18.6087  15.1699  26.2952 C.2            1 <1>                0.0000
     13 H13        -20.1714  14.1306  30.9052 H              1 <1>                0.0000
     14 H14        -20.0176  12.3893  30.6514 H              1 <1>                0.0000
     15 H15        -18.4648  12.6653  32.4610 H              1 <1>                0.0000
     16 H16        -18.0486  14.2948  31.9315 H              1 <1>                0.0000
     17 H17        -17.1811  11.6809  30.6768 H              1 <1>                0.0000
     18 H18        -16.1599  13.0555  31.0977 H              1 <1>                0.0000
     19 H19        -17.0767  12.6877  28.5481 H              1 <1>                0.0000
     20 H20        -16.9456  14.3168  29.2289 H              1 <1>                0.0000
     21 H21        -18.8019  11.9064  25.9789 H              1 <1>                0.0000
     22 H22        -17.7137  15.4795  24.3929 H              1 <1>                0.0000
     23 H23        -18.6950  16.1943  26.6257 H              1 <1>                0.0000
     24 ****       -21.3529  13.5940  29.0826 LP             1 <1>                0.0000
     25 ****       -21.3974  13.9365  27.3853 LP             1 <1>                0.0000
     26 ****       -17.7628  13.0120  24.0214 LP             1 <1>                0.0000
@<TRIPOS>BOND
    1    1    2 2     
    2    2    3 am    
    3    2    8 1     
    4    3    7 1     
    5    3    4 1     
    6    4    5 1     
    7    4   13 1     
    8    4   14 1     
    9    5    6 1     
   10    5   15 1     
   11    5   16 1     
   12    6    7 1     
   13    6   17 1     
   14    6   18 1     
   15    7   19 1     
   16    7   20 1     
   17    8   12 2     
   18    8    9 1     
   19    9   10 2     
   20    9   21 1     
   21   10   11 1     
   22   11   12 1     
   23   11   22 1     
   24   12   23 1     
   25    1   24 1     
   26    1   25 1     
   27   10   26 1     
@<TRIPOS>SUBSTRUCTURE
      1 ****           1
@<TRIPOS>SET
LONE_PAIRS      STATIC     ATOMS    <user>   **** ""
3 24 25 26
DONOR_HYDROGENS      STATIC     ATOMS    <user>   **** ""
1 22
ATOM$BLUE        STATIC     ATOMS    COLORGROUP SYSTEM
3 24 25 26
ATOM$RED        STATIC     ATOMS    COLORGROUP SYSTEM
1 22
@<TRIPOS>COMMENT
> <Gold.Version>
5.7.1

> <Gold.Id.Protein>
5ENC|5ENC_protein|mol2

> <Gold.Protein.RotatedTorsions>
[ 1501  701  700  697 ] final -101.50 input   60.00 | X-H torsion
[ 1497  695  694  692 ] final   20.44 input   60.00 | X-H torsion
[ 1251  358  357  355 ] final  -12.63 input   60.00 | X-H torsion
[ 1470  669  668  665 ] final   39.05 input   60.00 | X-H torsion

> <Gold.Protein.ActiveResidues>
 PRO28   PHE29   GLN31   PRO32   VAL33   TYR38   TYR41   PRO48   MET49   ASP50  
 ILE76   ASN79   SER80   TYR83   THR84   ILE91  

> <Gold.Protein.RotatedAtoms>
  -16.3802    9.3727   24.7082 H   0  0  0  0  0  0  0  0  0  0  0  0  # atno 1251 bound_to 358 
  -21.6675   11.0514   22.8750 H   0  0  0  0  0  0  0  0  0  0  0  0  # atno 1470 bound_to 669 
  -18.3804    9.2685   32.5707 H   0  0  0  0  0  0  0  0  0  0  0  0  # atno 1497 bound_to 695 
  -23.3838   11.2821   27.0972 H   0  0  0  0  0  0  0  0  0  0  0  0  # atno 1501 bound_to 701 
  -22.4078   11.2976   25.7952 LP  0  0  0  0  0  0  0  0  0  0  0  0  # atno 2046 bound_to 701 
  -22.4582    9.9854   26.7659 LP  0  0  0  0  0  0  0  0  0  0  0  0  # atno 2047 bound_to 701 
  -19.9507    9.6893   32.6418 LP  0  0  0  0  0  0  0  0  0  0  0  0  # atno 2052 bound_to 695 
  -18.8316   10.7780   32.1635 LP  0  0  0  0  0  0  0  0  0  0  0  0  # atno 2053 bound_to 695 
  -14.9712    8.6142   24.4126 LP  0  0  0  0  0  0  0  0  0  0  0  0  # atno 2056 bound_to 358 
  -15.0293   10.2455   24.4606 LP  0  0  0  0  0  0  0  0  0  0  0  0  # atno 2057 bound_to 358 

> <Gold.Protein.RotatedWaterAtoms>
  -17.7040   10.2320   24.0390 O.3 0  0  0  0  0  0  0  0  0  0  0  0  # atno 1    bound_to 2    3    AM1 ON 
  -18.6400    9.9012   24.0600 H   0  0  0  0  0  0  0  0  0  0  0  0  # atno 2    bound_to 1    AM1 ON 
  -17.5591   10.7631   23.2124 H   0  0  0  0  0  0  0  0  0  0  0  0  # atno 3    bound_to 1    AM1 ON 
  -17.0753    9.4544   24.0501 LP  0  0  0  0  0  0  0  0  0  0  0  0  # atno 4    bound_to 1    AM1 ON 
  -17.5360   10.8079   24.8391 LP  0  0  0  0  0  0  0  0  0  0  0  0  # atno 5    bound_to 1    AM1 ON 
  -13.7450   10.2720   23.0540 O.3 0  0  0  0  0  0  0  0  0  0  0  0  # atno 1    bound_to 2    3    AM2 ON 
  -13.6575   11.0977   22.5094 H   0  0  0  0  0  0  0  0  0  0  0  0  # atno 2    bound_to 1    AM2 ON 
  -14.4831   10.3841   23.7089 H   0  0  0  0  0  0  0  0  0  0  0  0  # atno 3    bound_to 1    AM2 ON 
  -12.8890   10.1024   23.5423 LP  0  0  0  0  0  0  0  0  0  0  0  0  # atno 4    bound_to 1    AM2 ON 
  -13.9460    9.4972   22.4546 LP  0  0  0  0  0  0  0  0  0  0  0  0  # atno 5    bound_to 1    AM2 ON 
  -21.1690   11.6250   24.3940 O.3 0  0  0  0  0  0  0  0  0  0  0  0  # atno 1    bound_to 2    3    AM3 ON 
  -20.2505   11.9790   24.5247 H   0  0  0  0  0  0  0  0  0  0  0  0  # atno 2    bound_to 1    AM3 ON 
  -21.5758   11.4257   25.2778 H   0  0  0  0  0  0  0  0  0  0  0  0  # atno 3    bound_to 1    AM3 ON 
  -21.1291   10.7875   23.8490 LP  0  0  0  0  0  0  0  0  0  0  0  0  # atno 4    bound_to 1    AM3 ON 
  -21.7243   12.3066   23.9175 LP  0  0  0  0  0  0  0  0  0  0  0  0  # atno 5    bound_to 1    AM3 ON 
  -14.6550   15.1580   23.4130 O.3 0  0  0  0  0  0  0  0  0  0  0  0  # atno 1    bound_to 2    3    AM4 ON 
  -15.4777   15.6630   23.6457 H   0  0  0  0  0  0  0  0  0  0  0  0  # atno 2    bound_to 1    AM4 ON 
  -13.8595   15.6484   23.7490 H   0  0  0  0  0  0  0  0  0  0  0  0  # atno 3    bound_to 1    AM4 ON 
  -14.5924   15.0621   22.4196 LP  0  0  0  0  0  0  0  0  0  0  0  0  # atno 4    bound_to 1    AM4 ON 
  -14.6901   14.2515   23.8338 LP  0  0  0  0  0  0  0  0  0  0  0  0  # atno 5    bound_to 1    AM4 ON 
  -23.6820   12.7820   28.0340 O.3 0  0  0  0  0  0  0  0  0  0  0  0  # atno 1    bound_to 2    3    AM5 ON 
  -22.8903   13.3479   28.2316 H   0  0  0  0  0  0  0  0  0  0  0  0  # atno 2    bound_to 1    AM5 ON 
  -24.4567   13.0981   28.5690 H   0  0  0  0  0  0  0  0  0  0  0  0  # atno 3    bound_to 1    AM5 ON 
  -23.4795   11.8315   28.2699 LP  0  0  0  0  0  0  0  0  0  0  0  0  # atno 4    bound_to 1    AM5 ON 
  -23.9017   12.8443   27.0604 LP  0  0  0  0  0  0  0  0  0  0  0  0  # atno 5    bound_to 1    AM5 ON 
  -16.9520   11.2350   21.5950 O.3 0  0  0  0  0  0  0  0  0  0  0  0  # atno 1    bound_to 2    3    AM6 ON 
  -16.3958   12.0479   21.4691 H   0  0  0  0  0  0  0  0  0  0  0  0  # atno 2    bound_to 1    AM6 ON 
  -16.9811   10.7192   20.7468 H   0  0  0  0  0  0  0  0  0  0  0  0  # atno 3    bound_to 1    AM6 ON 
  -17.8799   11.5029   21.8542 LP  0  0  0  0  0  0  0  0  0  0  0  0  # atno 4    bound_to 1    AM6 ON 
  -16.5549   10.6679   22.3166 LP  0  0  0  0  0  0  0  0  0  0  0  0  # atno 5    bound_to 1    AM6 ON 
  -14.9200   12.9840   21.7870 O.3 0  0  0  0  0  0  0  0  0  0  0  0  # atno 1    bound_to 2    3    AM7 ON 
  -14.7251   13.5852   22.5529 H   0  0  0  0  0  0  0  0  0  0  0  0  # atno 2    bound_to 1    AM7 ON 
  -14.0810   12.8007   21.2882 H   0  0  0  0  0  0  0  0  0  0  0  0  # atno 3    bound_to 1    AM7 ON 
  -15.5806   13.4232   21.1782 LP  0  0  0  0  0  0  0  0  0  0  0  0  # atno 4    bound_to 1    AM7 ON 
  -15.3005   12.1239   22.1268 LP  0  0  0  0  0  0  0  0  0  0  0  0  # atno 5    bound_to 1    AM7 ON 

> <Gold.Score>
     Score         DG    S(hbond)    S(metal)    S(lipo)     H(rot)  DE(clash)    DE(int)    S(bar)      intcor
     48.20     -49.04      13.83        0.00      97.17       0.00       0.00       0.85      14.00       3.22

> <Gold.Chemscore.Fitness>
48.1962

> <Gold.Chemscore.DG>
-49.0412

> <Gold.Chemscore.ZeroCoef>
-5.4800

> <Gold.Chemscore.Hbond>
13.8300

> <Gold.Chemscore.Metal>
0.0000

> <Gold.Chemscore.Lipo>
97.1703

> <Gold.Chemscore.Internal_Hbond>
0.0000

> <Gold.Chemscore.DEClash>
0.0000

> <Gold.Chemscore.DEInternal>
0.8450

> <Gold.Chemscore.Rot>
0.0000

> <Gold.Chemscore.Internal.Correction>
3.2155

> <Gold.Chemscore.SBar>
14.0000

> <Gold.Chemscore.Hbonds>
donor molecule, donor type, donor heavy atom, donor atom, acceptor molecule, acceptor atom, score
      L1  H    11    22       P1   238  0.99
     AM1  H     1     3      AM6     1  0.98
     AM2  H     1     2       P1   419  0.66
     AM2  H     1     3       P1   358  0.71
     AM3  H     1     3       P1   701  0.77
     AM4  H     1     2       P1   238  0.99
     AM4  H     1     3       P1   267  0.98
     AM5  H     1     2       L1     1  0.95
     AM6  H     1     2      AM7     1  0.94
     AM6  H     1     3       P1   634  1.00
     AM7  H     1     2      AM4     1  0.97
     AM7  H     1     3       P1   419  0.98
      P1  H   701  1501      AM5     1  0.93
      P1  H   358  1251      AM1     1  0.83
      P1  H   669  1470      AM3     1  0.97
      P1  H   663  1465      AM2     1  0.18

> <Gold.Chemscore.Hbond.Weighted>
-46.1923

> <Gold.Chemscore.Metal.Weighted>
-0.0000

> <Gold.Chemscore.Lipo.Weighted>
-11.3689

> <Gold.Chemscore.Internal_Hbond.Weighted>
0.0000

> <Gold.Chemscore.DEClash.Weighted>
0.0000

> <Gold.Chemscore.DEInternal.Weighted>
0.8450

> <Gold.Chemscore.Rot.Weighted>
0.0000

> <Gold.Chemscore.Internal.Correction.Weighted>
3.2155

