#       Name:                F309-85A2BFC13365E6BF-493175FAA16D8ED5-NMX
#       Creating user name   iorga
#       Creation time:       Wed Nov 27 19:04:55 2019


#       File generated by GOLD software.
#

@<TRIPOS>MOLECULE
F309-85A2BFC13365E6BF-493175FAA16D8ED5-NMX|ligands_smiles_3D-hash|mol2|318|dock33
    18    18     1
SMALL
NO_CHARGES


@<TRIPOS>ATOM
      1 C1         -18.8533  13.0475  27.6224 C.3            1 <1>                0.0000
      2 C2         -18.4575  13.0060  29.0690 C.2            1 <1>                0.0000
      3 C3         -17.2386  12.4092  29.5178 C.2            1 <1>                0.0000
      4 C4         -17.0641  12.4750  30.8733 C.2            1 <1>                0.0000
      5 S5         -18.3984  13.2764  31.6470 S.3            1 <1>                0.0000
      6 C6         -19.2009  13.5238  30.1093 C.2            1 <1>                0.0000
      7 C7         -20.5083  14.2250  30.1490 C.2            1 <1>                0.0000
      8 O8         -20.7375  15.0161  31.0900 O.co2          1 <1>                0.0000
      9 H9         -18.1047  12.5743  26.9868 H              1 <1>                0.0000
     10 H10        -19.7973  12.5279  27.4571 H              1 <1>                0.0000
     11 H11        -18.9735  14.0742  27.2761 H              1 <1>                0.0000
     12 H12        -16.5362  11.9551  28.8344 H              1 <1>                0.0000
     13 H13        -16.2384  12.1040  31.4617 H              1 <1>                0.0000
     14 O14        -21.3476  14.0106  29.2458 O.co2          1 <1>                0.0000
     15 ****       -21.6121  15.4988  31.1357 LP             1 <1>                0.0000
     16 ****       -20.0461  15.1661  31.7968 LP             1 <1>                0.0000
     17 ****       -22.2315  14.4780  29.2634 LP             1 <1>                0.0000
     18 ****       -21.1344  13.3719  28.5065 LP             1 <1>                0.0000
@<TRIPOS>BOND
    1    1    2 1     
    2    1    9 1     
    3    1   10 1     
    4    1   11 1     
    5    2    6 2     
    6    2    3 1     
    7    3    4 2     
    8    3   12 1     
    9    4    5 1     
   10    4   13 1     
   11    5    6 1     
   12    6    7 1     
   13    7    8 ar    
   14    7   14 ar    
   15    8   15 1     
   16    8   16 1     
   17   14   17 1     
   18   14   18 1     
@<TRIPOS>SUBSTRUCTURE
      1 ****           1
@<TRIPOS>SET
LONE_PAIRS      STATIC     ATOMS    <user>   **** ""
4 15 16 17 18
ATOM$BLUE        STATIC     ATOMS    COLORGROUP SYSTEM
4 15 16 17 18
@<TRIPOS>COMMENT
> <Gold.Version>
5.7.1

> <Gold.Id.Protein>
5ENC|5ENC_protein|mol2

> <Gold.Protein.RotatedTorsions>
[ 1501  701  700  697 ] final -103.24 input   60.00 | X-H torsion
[ 1497  695  694  692 ] final   66.14 input   60.00 | X-H torsion
[ 1251  358  357  355 ] final   -4.99 input   60.00 | X-H torsion
[ 1470  669  668  665 ] final   41.16 input   60.00 | X-H torsion

> <Gold.Protein.ActiveResidues>
 PRO28   PHE29   GLN31   PRO32   VAL33   TYR38   TYR41   PRO48   MET49   ASP50  
 ILE76   ASN79   SER80   TYR83   THR84   ILE91  

> <Gold.Protein.RotatedAtoms>
  -16.3765    9.4974   24.7103 H   0  0  0  0  0  0  0  0  0  0  0  0  # atno 1251 bound_to 358 
  -21.6493   11.0806   22.8725 H   0  0  0  0  0  0  0  0  0  0  0  0  # atno 1470 bound_to 669 
  -18.1240    9.9088   32.3403 H   0  0  0  0  0  0  0  0  0  0  0  0  # atno 1497 bound_to 695 
  -23.3827   11.3048   27.0801 H   0  0  0  0  0  0  0  0  0  0  0  0  # atno 1501 bound_to 701 
  -22.3917   11.2746   25.7897 LP  0  0  0  0  0  0  0  0  0  0  0  0  # atno 2046 bound_to 701 
  -22.4755    9.9856   26.7887 LP  0  0  0  0  0  0  0  0  0  0  0  0  # atno 2047 bound_to 701 
  -19.4913    9.1307   32.7564 LP  0  0  0  0  0  0  0  0  0  0  0  0  # atno 2052 bound_to 695 
  -19.5492   10.6919   32.2810 LP  0  0  0  0  0  0  0  0  0  0  0  0  # atno 2053 bound_to 695 
  -15.0797    8.5543   24.4325 LP  0  0  0  0  0  0  0  0  0  0  0  0  # atno 2056 bound_to 358 
  -14.9244   10.1799   24.4385 LP  0  0  0  0  0  0  0  0  0  0  0  0  # atno 2057 bound_to 358 

> <Gold.Protein.RotatedWaterAtoms>
  -17.7040   10.2320   24.0390 O.3 0  0  0  0  0  0  0  0  0  0  0  0  # atno 1    bound_to 2    3    AM1 ON 
  -18.4249   10.6582   24.5726 H   0  0  0  0  0  0  0  0  0  0  0  0  # atno 2    bound_to 1    AM1 ON 
  -17.7030   10.6115   23.1212 H   0  0  0  0  0  0  0  0  0  0  0  0  # atno 3    bound_to 1    AM1 ON 
  -17.8629    9.2458   23.9918 LP  0  0  0  0  0  0  0  0  0  0  0  0  # atno 4    bound_to 1    AM1 ON 
  -16.8202   10.4068   24.4730 LP  0  0  0  0  0  0  0  0  0  0  0  0  # atno 5    bound_to 1    AM1 ON 
  -13.7450   10.2720   23.0540 O.3 0  0  0  0  0  0  0  0  0  0  0  0  # atno 1    bound_to 2    3    AM2 ON 
  -14.2668    9.6679   23.6447 H   0  0  0  0  0  0  0  0  0  0  0  0  # atno 2    bound_to 1    AM2 ON 
  -14.2450   11.1200   22.9231 H   0  0  0  0  0  0  0  0  0  0  0  0  # atno 3    bound_to 1    AM2 ON 
  -13.6009    9.8299   22.1687 LP  0  0  0  0  0  0  0  0  0  0  0  0  # atno 4    bound_to 1    AM2 ON 
  -12.8601   10.4686   23.4763 LP  0  0  0  0  0  0  0  0  0  0  0  0  # atno 5    bound_to 1    AM2 ON 
  -21.1690   11.6250   24.3940 O.3 0  0  0  0  0  0  0  0  0  0  0  0  # atno 1    bound_to 2    3    AM3 ON 
  -20.4923   12.3414   24.5158 H   0  0  0  0  0  0  0  0  0  0  0  0  # atno 2    bound_to 1    AM3 ON 
  -21.5572   11.3830   25.2755 H   0  0  0  0  0  0  0  0  0  0  0  0  # atno 3    bound_to 1    AM3 ON 
  -20.7338   10.8207   23.9894 LP  0  0  0  0  0  0  0  0  0  0  0  0  # atno 4    bound_to 1    AM3 ON 
  -21.8947   11.9514   23.7884 LP  0  0  0  0  0  0  0  0  0  0  0  0  # atno 5    bound_to 1    AM3 ON 
  -14.6550   15.1580   23.4130 O.3 0  0  0  0  0  0  0  0  0  0  0  0  # atno 1    bound_to 2    3    AM4 ON 
  -15.3931   15.7962   23.5971 H   0  0  0  0  0  0  0  0  0  0  0  0  # atno 2    bound_to 1    AM4 ON 
  -13.7854   15.5867   23.6281 H   0  0  0  0  0  0  0  0  0  0  0  0  # atno 3    bound_to 1    AM4 ON 
  -14.6699   14.9008   22.4467 LP  0  0  0  0  0  0  0  0  0  0  0  0  # atno 4    bound_to 1    AM4 ON 
  -14.7723   14.3408   23.9773 LP  0  0  0  0  0  0  0  0  0  0  0  0  # atno 5    bound_to 1    AM4 ON 
  -23.6820   12.7820   28.0340 O.3 0  0  0  0  0  0  0  0  0  0  0  0  # atno 1    bound_to 2    3    AM5 ON 
  -22.9600   13.2090   28.5654 H   0  0  0  0  0  0  0  0  0  0  0  0  # atno 2    bound_to 1    AM5 ON 
  -24.3457   13.4699   27.7646 H   0  0  0  0  0  0  0  0  0  0  0  0  # atno 3    bound_to 1    AM5 ON 
  -24.1334   12.0817   28.5871 LP  0  0  0  0  0  0  0  0  0  0  0  0  # atno 4    bound_to 1    AM5 ON 
  -23.2894   12.3596   27.2170 LP  0  0  0  0  0  0  0  0  0  0  0  0  # atno 5    bound_to 1    AM5 ON 
  -16.9520   11.2350   21.5950 O.3 0  0  0  0  0  0  0  0  0  0  0  0  # atno 1    bound_to 2    3    AM6 ON 
  -16.2684   11.9534   21.5441 H   0  0  0  0  0  0  0  0  0  0  0  0  # atno 2    bound_to 1    AM6 ON 
  -17.0498   10.8074   20.7040 H   0  0  0  0  0  0  0  0  0  0  0  0  # atno 3    bound_to 1    AM6 ON 
  -17.8282   11.6278   21.8743 LP  0  0  0  0  0  0  0  0  0  0  0  0  # atno 4    bound_to 1    AM6 ON 
  -16.6657   10.5493   22.2642 LP  0  0  0  0  0  0  0  0  0  0  0  0  # atno 5    bound_to 1    AM6 ON 
  -14.9200   12.9840   21.7870 O.3 0  0  0  0  0  0  0  0  0  0  0  0  # atno 1    bound_to 2    3    AM7 ON 
  -14.0240   12.7773   21.4122 H   0  0  0  0  0  0  0  0  0  0  0  0  # atno 2    bound_to 1    AM7 ON 
  -14.8660   13.8081   22.3385 H   0  0  0  0  0  0  0  0  0  0  0  0  # atno 3    bound_to 1    AM7 ON 
  -15.2272   12.2215   22.3563 LP  0  0  0  0  0  0  0  0  0  0  0  0  # atno 4    bound_to 1    AM7 ON 
  -15.5695   13.1249   21.0398 LP  0  0  0  0  0  0  0  0  0  0  0  0  # atno 5    bound_to 1    AM7 ON 

> <Gold.Score>
     Score         DG    S(hbond)    S(metal)    S(lipo)     H(rot)  DE(clash)    DE(int)    S(bar)      intcor
     47.18     -47.27      13.40        0.00      94.34       0.00       0.01       0.09      14.00       0.21

> <Gold.Chemscore.Fitness>
47.1781

> <Gold.Chemscore.DG>
-47.2718

> <Gold.Chemscore.ZeroCoef>
-5.4800

> <Gold.Chemscore.Hbond>
13.3992

> <Gold.Chemscore.Metal>
0.0000

> <Gold.Chemscore.Lipo>
94.3448

> <Gold.Chemscore.Internal_Hbond>
0.0000

> <Gold.Chemscore.DEClash>
0.0073

> <Gold.Chemscore.DEInternal>
0.0863

> <Gold.Chemscore.Rot>
0.0000

> <Gold.Chemscore.Internal.Correction>
0.2123

> <Gold.Chemscore.SBar>
14.0000

> <Gold.Chemscore.Hbonds>
donor molecule, donor type, donor heavy atom, donor atom, acceptor molecule, acceptor atom, score
     AM1  H     1     3      AM6     1  0.98
     AM2  H     1     2       P1   358  0.94
     AM3  H     1     3       P1   701  0.77
     AM4  H     1     2       P1   238  1.00
     AM4  H     1     3       P1   267  1.00
     AM5  H     1     2       L1    14  1.00
     AM6  H     1     2      AM7     1  0.99
     AM6  H     1     3       P1   634  1.00
     AM7  H     1     2       P1   419  0.99
     AM7  H     1     3      AM4     1  0.99
      P1  H   701  1501      AM5     1  0.97
      P1  H   358  1251      AM1     1  0.94
      P1  H   416  1258      AM2     1  0.86
      P1  H   669  1470      AM3     1  0.98

> <Gold.Chemscore.Hbond.Weighted>
-44.7534

> <Gold.Chemscore.Metal.Weighted>
-0.0000

> <Gold.Chemscore.Lipo.Weighted>
-11.0383

> <Gold.Chemscore.Internal_Hbond.Weighted>
0.0000

> <Gold.Chemscore.DEClash.Weighted>
0.0073

> <Gold.Chemscore.DEInternal.Weighted>
0.0863

> <Gold.Chemscore.Rot.Weighted>
0.0000

> <Gold.Chemscore.Internal.Correction.Weighted>
0.2123

