#       Name:                F501-D12027551584A42E-AB61CBA733864BBF-NMX
#       Creating user name   iorga
#       Creation time:       Wed Nov 27 14:02:09 2019


#       File generated by GOLD software.
#

@<TRIPOS>MOLECULE
F501-D12027551584A42E-AB61CBA733864BBF-NMX|ligands_smiles_3D-hash|mol2|516|dock31
    29    30     1
SMALL
NO_CHARGES


@<TRIPOS>ATOM
      1 C1         -17.0203  12.6853  29.9567 C.3            1 <1>                0.0000
      2 N2         -18.0283  13.6530  29.5764 N.pl3          1 <1>                0.0000
      3 N3         -18.2288  14.7587  30.3411 N.2            1 <1>                0.0000
      4 N4         -19.1781  15.4542  29.7858 N.2            1 <1>                0.0000
      5 C5         -19.6016  14.7861  28.6404 C.2            1 <1>                0.0000
      6 C6         -20.6711  15.2300  27.6977 C.3            1 <1>                0.0000
      7 C7         -20.5410  14.4717  26.3544 C.3            1 <1>                0.0000
      8 C8         -20.2576  12.9421  26.5130 C.3            1 <1>                0.0000
      9 C9         -19.0203  12.6361  27.4095 C.3            1 <1>                0.0000
     10 C10        -18.8881  13.6432  28.4989 C.2            1 <1>                0.0000
     11 C11        -20.1359  12.2292  25.1508 C.2            1 <1>                0.0000
     12 O12        -19.0677  12.3480  24.5099 O.co2          1 <1>                0.0000
     13 H13        -16.7610  12.0586  29.1032 H              1 <1>                0.0000
     14 H14        -16.1214  13.1973  30.3017 H              1 <1>                0.0000
     15 H15        -17.4037  12.0539  30.7585 H              1 <1>                0.0000
     16 H16        -21.6487  15.0260  28.1352 H              1 <1>                0.0000
     17 H17        -20.6230  16.3061  27.5290 H              1 <1>                0.0000
     18 H18        -21.4393  14.6457  25.7604 H              1 <1>                0.0000
     19 H19        -19.7159  14.9150  25.7944 H              1 <1>                0.0000
     20 H20        -21.1315  12.5186  27.0100 H              1 <1>                0.0000
     21 H21        -18.1057  12.6497  26.8148 H              1 <1>                0.0000
     22 H22        -19.1013  11.6355  27.8356 H              1 <1>                0.0000
     23 O23        -21.1338  11.5874  24.7534 O.co2          1 <1>                0.0000
     24 ****       -17.7361  14.9950  31.1786 LP             1 <1>                0.0000
     25 ****       -19.5419  16.3218  30.1247 LP             1 <1>                0.0000
     26 ****       -18.9705  11.9128  23.6149 LP             1 <1>                0.0000
     27 ****       -18.3112  12.8781  24.8929 LP             1 <1>                0.0000
     28 ****       -21.1103  11.1251  23.8670 LP             1 <1>                0.0000
     29 ****       -21.9547  11.5368  25.3221 LP             1 <1>                0.0000
@<TRIPOS>BOND
    1    1    2 1     
    2    1   13 1     
    3    1   14 1     
    4    1   15 1     
    5    2   10 1     
    6    2    3 1     
    7    3    4 2     
    8    4    5 1     
    9    5   10 2     
   10    5    6 1     
   11    6    7 1     
   12    6   16 1     
   13    6   17 1     
   14    7    8 1     
   15    7   18 1     
   16    7   19 1     
   17    8    9 1     
   18    8   11 1     
   19    8   20 1     
   20    9   10 1     
   21    9   21 1     
   22    9   22 1     
   23   11   12 ar    
   24   11   23 ar    
   25    3   24 1     
   26    4   25 1     
   27   12   26 1     
   28   12   27 1     
   29   23   28 1     
   30   23   29 1     
@<TRIPOS>SUBSTRUCTURE
      1 ****           1
@<TRIPOS>SET
LONE_PAIRS      STATIC     ATOMS    <user>   **** ""
6 24 25 26 27 28 29
ATOM$BLUE        STATIC     ATOMS    COLORGROUP SYSTEM
6 24 25 26 27 28 29
@<TRIPOS>COMMENT
> <Gold.Version>
5.7.1

> <Gold.Id.Protein>
5ENC|5ENC_protein|mol2

> <Gold.Protein.RotatedTorsions>
[ 1501  701  700  697 ] final  105.91 input   60.00 | X-H torsion
[ 1497  695  694  692 ] final  -80.75 input   60.00 | X-H torsion
[ 1251  358  357  355 ] final   -5.14 input   60.00 | X-H torsion
[ 1470  669  668  665 ] final   53.84 input   60.00 | X-H torsion

> <Gold.Protein.ActiveResidues>
 PRO28   PHE29   GLN31   PRO32   VAL33   TYR38   TYR41   PRO48   MET49   ASP50  
 ILE76   ASN79   SER80   TYR83   THR84   ILE91  

> <Gold.Protein.RotatedAtoms>
  -16.3767    9.4949   24.7103 H   0  0  0  0  0  0  0  0  0  0  0  0  # atno 1251 bound_to 358 
  -21.5509   11.2583   22.8332 H   0  0  0  0  0  0  0  0  0  0  0  0  # atno 1470 bound_to 669 
  -19.8128    9.4222   32.7045 H   0  0  0  0  0  0  0  0  0  0  0  0  # atno 1497 bound_to 695 
  -22.1789   10.8230   25.8141 H   0  0  0  0  0  0  0  0  0  0  0  0  # atno 1501 bound_to 701 
  -22.8086   10.1189   27.1391 LP  0  0  0  0  0  0  0  0  0  0  0  0  # atno 2046 bound_to 701 
  -23.2708   11.6264   26.7142 LP  0  0  0  0  0  0  0  0  0  0  0  0  # atno 2047 bound_to 701 
  -19.1366   10.8108   32.1920 LP  0  0  0  0  0  0  0  0  0  0  0  0  # atno 2052 bound_to 695 
  -18.2032    9.5018   32.4785 LP  0  0  0  0  0  0  0  0  0  0  0  0  # atno 2053 bound_to 695 
  -15.0775    8.5553   24.4321 LP  0  0  0  0  0  0  0  0  0  0  0  0  # atno 2056 bound_to 358 
  -14.9264   10.1813   24.4389 LP  0  0  0  0  0  0  0  0  0  0  0  0  # atno 2057 bound_to 358 

> <Gold.Protein.RotatedWaterAtoms>
  -17.7040   10.2320   24.0390 O.3 0  0  0  0  0  0  0  0  0  0  0  0  # atno 1    bound_to 2    3    AM1 ON 
  -18.0655   11.0716   24.4269 H   0  0  0  0  0  0  0  0  0  0  0  0  # atno 2    bound_to 1    AM1 ON 
  -17.6763   10.3097   23.0493 H   0  0  0  0  0  0  0  0  0  0  0  0  # atno 3    bound_to 1    AM1 ON 
  -18.2920    9.4654   24.2969 LP  0  0  0  0  0  0  0  0  0  0  0  0  # atno 4    bound_to 1    AM1 ON 
  -16.7798   10.0749   24.3871 LP  0  0  0  0  0  0  0  0  0  0  0  0  # atno 5    bound_to 1    AM1 ON 
  -13.7450   10.2720   23.0540 O.3 0  0  0  0  0  0  0  0  0  0  0  0  # atno 1    bound_to 2    3    AM2 ON 
  -14.1552    9.6980   23.7528 H   0  0  0  0  0  0  0  0  0  0  0  0  # atno 2    bound_to 1    AM2 ON 
  -14.1597   11.1740   23.0812 H   0  0  0  0  0  0  0  0  0  0  0  0  # atno 3    bound_to 1    AM2 ON 
  -13.8969    9.8622   22.1546 LP  0  0  0  0  0  0  0  0  0  0  0  0  # atno 4    bound_to 1    AM2 ON 
  -12.7625   10.3516   23.2224 LP  0  0  0  0  0  0  0  0  0  0  0  0  # atno 5    bound_to 1    AM2 ON 
  -21.1690   11.6250   24.3940 O.3 0  0  0  0  0  0  0  0  0  0  0  0  # atno 1    bound_to 2    3    AM3 OFF
  -22.0143   11.7293   24.9045 H   0  0  0  0  0  0  0  0  0  0  0  0  # atno 2    bound_to 1    AM3 OFF
  -20.6983   10.8047   24.6971 H   0  0  0  0  0  0  0  0  0  0  0  0  # atno 3    bound_to 1    AM3 OFF
  -20.5849   12.4215   24.5502 LP  0  0  0  0  0  0  0  0  0  0  0  0  # atno 4    bound_to 1    AM3 OFF
  -21.3758   11.5495   23.4185 LP  0  0  0  0  0  0  0  0  0  0  0  0  # atno 5    bound_to 1    AM3 OFF
  -14.6550   15.1580   23.4130 O.3 0  0  0  0  0  0  0  0  0  0  0  0  # atno 1    bound_to 2    3    AM4 ON 
  -13.8198   15.6950   23.4010 H   0  0  0  0  0  0  0  0  0  0  0  0  # atno 2    bound_to 1    AM4 ON 
  -15.4255   15.7490   23.6213 H   0  0  0  0  0  0  0  0  0  0  0  0  # atno 3    bound_to 1    AM4 ON 
  -14.5832   14.4454   24.1109 LP  0  0  0  0  0  0  0  0  0  0  0  0  # atno 4    bound_to 1    AM4 ON 
  -14.7920   14.7348   22.5174 LP  0  0  0  0  0  0  0  0  0  0  0  0  # atno 5    bound_to 1    AM4 ON 
  -23.6820   12.7820   28.0340 O.3 0  0  0  0  0  0  0  0  0  0  0  0  # atno 1    bound_to 2    3    AM5 ON 
  -23.3223   11.9363   27.6579 H   0  0  0  0  0  0  0  0  0  0  0  0  # atno 2    bound_to 1    AM5 ON 
  -24.6220   12.6426   28.3225 H   0  0  0  0  0  0  0  0  0  0  0  0  # atno 3    bound_to 1    AM5 ON 
  -23.6502   13.4974   27.3360 LP  0  0  0  0  0  0  0  0  0  0  0  0  # atno 4    bound_to 1    AM5 ON 
  -23.1295   13.0587   28.8203 LP  0  0  0  0  0  0  0  0  0  0  0  0  # atno 5    bound_to 1    AM5 ON 
  -16.9520   11.2350   21.5950 O.3 0  0  0  0  0  0  0  0  0  0  0  0  # atno 1    bound_to 2    3    AM6 ON 
  -17.0891   10.9149   20.6650 H   0  0  0  0  0  0  0  0  0  0  0  0  # atno 2    bound_to 1    AM6 ON 
  -16.3029   11.9866   21.5941 H   0  0  0  0  0  0  0  0  0  0  0  0  # atno 3    bound_to 1    AM6 ON 
  -16.5957   10.4875   22.1557 LP  0  0  0  0  0  0  0  0  0  0  0  0  # atno 4    bound_to 1    AM6 ON 
  -17.8238   11.5479   21.9718 LP  0  0  0  0  0  0  0  0  0  0  0  0  # atno 5    bound_to 1    AM6 ON 
  -14.9200   12.9840   21.7870 O.3 0  0  0  0  0  0  0  0  0  0  0  0  # atno 1    bound_to 2    3    AM7 ON 
  -14.0371   12.8029   21.3703 H   0  0  0  0  0  0  0  0  0  0  0  0  # atno 2    bound_to 1    AM7 ON 
  -14.8187   13.6804   22.4878 H   0  0  0  0  0  0  0  0  0  0  0  0  # atno 3    bound_to 1    AM7 ON 
  -15.2722   12.1442   22.2001 LP  0  0  0  0  0  0  0  0  0  0  0  0  # atno 4    bound_to 1    AM7 ON 
  -15.5590   13.3050   21.0879 LP  0  0  0  0  0  0  0  0  0  0  0  0  # atno 5    bound_to 1    AM7 ON 

> <Gold.Score>
     Score         DG    S(hbond)    S(metal)    S(lipo)     H(rot)  DE(clash)    DE(int)    S(bar)      intcor
     44.71     -45.10      13.26        0.00      84.54       1.00       0.06       0.34      12.00       1.28

> <Gold.Chemscore.Fitness>
44.7094

> <Gold.Chemscore.DG>
-45.1016

> <Gold.Chemscore.ZeroCoef>
-5.4800

> <Gold.Chemscore.Hbond>
13.2605

> <Gold.Chemscore.Metal>
0.0000

> <Gold.Chemscore.Lipo>
84.5417

> <Gold.Chemscore.Internal_Hbond>
0.0000

> <Gold.Chemscore.DEClash>
0.0558

> <Gold.Chemscore.DEInternal>
0.3364

> <Gold.Chemscore.Rot>
1.0000

> <Gold.Chemscore.Internal.Correction>
1.2838

> <Gold.Chemscore.SBar>
12.0000

> <Gold.Chemscore.Hbonds>
donor molecule, donor type, donor heavy atom, donor atom, acceptor molecule, acceptor atom, score
     AM1  H     1     2       L1    12  0.91
     AM1  H     1     3      AM6     1  0.88
     AM2  H     1     2       P1   358  0.92
     AM4  H     1     2       P1   267  1.00
     AM4  H     1     3       P1   238  1.00
     AM5  H     1     2       P1   701  0.94
     AM6  H     1     2       P1   634  0.98
     AM6  H     1     3      AM7     1  0.99
     AM7  H     1     2       P1   419  0.99
     AM7  H     1     3      AM4     1  0.98
      P1  H   701  1501       L1    23  0.96
      P1  H   358  1251      AM1     1  0.85
      P1  H   416  1258      AM2     1  0.87
      P1  H   669  1470       L1    23  0.99

> <Gold.Chemscore.Hbond.Weighted>
-44.2902

> <Gold.Chemscore.Metal.Weighted>
-0.0000

> <Gold.Chemscore.Lipo.Weighted>
-9.8914

> <Gold.Chemscore.Internal_Hbond.Weighted>
0.0000

> <Gold.Chemscore.DEClash.Weighted>
0.0558

> <Gold.Chemscore.DEInternal.Weighted>
0.3364

> <Gold.Chemscore.Rot.Weighted>
2.5600

> <Gold.Chemscore.Internal.Correction.Weighted>
1.2838

