#       Name:                F760-36CB421B00046841-36CB421B00046841-NMX
#       Creating user name   iorga
#       Creation time:       Wed Nov 27 15:53:23 2019


#       File generated by GOLD software.
#

@<TRIPOS>MOLECULE
F760-36CB421B00046841-36CB421B00046841-NMX|ligands_smiles_3D-hash|mol2|782|dock43
    19    20     1
SMALL
NO_CHARGES


@<TRIPOS>ATOM
      1 O1         -18.5433  12.9972  24.5163 O.2            1 <1>                0.0000
      2 C2         -18.1034  13.6099  25.4867 C.2            1 <1>                0.0000
      3 C3         -18.2061  13.0946  26.9336 C.3            1 <1>                0.0000
      4 C4         -17.5177  14.2329  27.6453 C.ar           1 <1>                0.0000
      5 C5         -17.1128  15.1981  26.7335 C.ar           1 <1>                0.0000
      6 C6         -16.4449  16.3672  27.1322 C.ar           1 <1>                0.0000
      7 C7         -16.1917  16.5371  28.5125 C.ar           1 <1>                0.0000
      8 Br8        -15.2904  18.0993  29.1188 Br             1 <1>                0.0000
      9 C9         -16.6030  15.5544  29.4481 C.ar           1 <1>                0.0000
     10 C10        -17.2742  14.3853  29.0212 C.ar           1 <1>                0.0000
     11 N11        -17.4780  14.7963  25.4473 N.am           1 <1>                0.0000
     12 H12        -17.6708  12.1541  27.0658 H              1 <1>                0.0000
     13 H13        -19.2437  12.9893  27.2515 H              1 <1>                0.0000
     14 H14        -16.1361  17.1092  26.4106 H              1 <1>                0.0000
     15 H15        -16.4016  15.6998  30.4992 H              1 <1>                0.0000
     16 H16        -17.5894  13.6339  29.7302 H              1 <1>                0.0000
     17 H17        -17.2864  15.3414  24.6192 H              1 <1>                0.0000
     18 ****       -18.4482  13.3807  23.5977 LP             1 <1>                0.0000
     19 ****       -18.9964  12.1152  24.6455 LP             1 <1>                0.0000
@<TRIPOS>BOND
    1    1    2 2     
    2    2   11 am    
    3    2    3 1     
    4    3    4 1     
    5    3   12 1     
    6    3   13 1     
    7    4   10 ar    
    8    4    5 ar    
    9    5    6 ar    
   10    5   11 1     
   11    6    7 ar    
   12    6   14 1     
   13    7    8 1     
   14    7    9 ar    
   15    9   10 ar    
   16    9   15 1     
   17   10   16 1     
   18   11   17 1     
   19    1   18 1     
   20    1   19 1     
@<TRIPOS>SUBSTRUCTURE
      1 ****           1
@<TRIPOS>SET
LONE_PAIRS      STATIC     ATOMS    <user>   **** ""
2 18 19
DONOR_HYDROGENS      STATIC     ATOMS    <user>   **** ""
1 17
ATOM$BLUE        STATIC     ATOMS    COLORGROUP SYSTEM
2 18 19
ATOM$RED        STATIC     ATOMS    COLORGROUP SYSTEM
1 17
@<TRIPOS>COMMENT
> <Gold.Version>
5.7.1

> <Gold.Id.Protein>
5ENC|5ENC_protein|mol2

> <Gold.Protein.RotatedTorsions>
[ 1501  701  700  697 ] final -103.49 input   60.00 | X-H torsion
[ 1497  695  694  692 ] final  120.42 input   60.00 | X-H torsion
[ 1251  358  357  355 ] final   -2.46 input   60.00 | X-H torsion
[ 1470  669  668  665 ] final   39.02 input   60.00 | X-H torsion

> <Gold.Protein.ActiveResidues>
 PRO28   PHE29   GLN31   PRO32   VAL33   TYR38   TYR41   PRO48   MET49   ASP50  
 ILE76   ASN79   SER80   TYR83   THR84   ILE91  

> <Gold.Protein.RotatedAtoms>
  -16.3717    9.5383   24.7103 H   0  0  0  0  0  0  0  0  0  0  0  0  # atno 1251 bound_to 358 
  -21.6677   11.0511   22.8750 H   0  0  0  0  0  0  0  0  0  0  0  0  # atno 1470 bound_to 669 
  -18.5374   10.6359   32.1678 H   0  0  0  0  0  0  0  0  0  0  0  0  # atno 1497 bound_to 695 
  -23.3824   11.3080   27.0776 H   0  0  0  0  0  0  0  0  0  0  0  0  # atno 1501 bound_to 701 
  -22.3894   11.2713   25.7889 LP  0  0  0  0  0  0  0  0  0  0  0  0  # atno 2046 bound_to 701 
  -22.4780    9.9857   26.7920 LP  0  0  0  0  0  0  0  0  0  0  0  0  # atno 2047 bound_to 701 
  -18.6376    9.0885   32.6613 LP  0  0  0  0  0  0  0  0  0  0  0  0  # atno 2052 bound_to 695 
  -19.9866   10.0018   32.5497 LP  0  0  0  0  0  0  0  0  0  0  0  0  # atno 2053 bound_to 695 
  -15.1172    8.5378   24.4395 LP  0  0  0  0  0  0  0  0  0  0  0  0  # atno 2056 bound_to 358 
  -14.8918   10.1551   24.4316 LP  0  0  0  0  0  0  0  0  0  0  0  0  # atno 2057 bound_to 358 

> <Gold.Protein.RotatedWaterAtoms>
  -17.7040   10.2320   24.0390 O.3 0  0  0  0  0  0  0  0  0  0  0  0  # atno 1    bound_to 2    3    AM1 ON 
  -18.1042   11.0596   24.4145 H   0  0  0  0  0  0  0  0  0  0  0  0  # atno 2    bound_to 1    AM1 ON 
  -17.6662   10.3022   23.0491 H   0  0  0  0  0  0  0  0  0  0  0  0  # atno 3    bound_to 1    AM1 ON 
  -18.2641    9.4445   24.2961 LP  0  0  0  0  0  0  0  0  0  0  0  0  # atno 4    bound_to 1    AM1 ON 
  -16.7790   10.1153   24.4005 LP  0  0  0  0  0  0  0  0  0  0  0  0  # atno 5    bound_to 1    AM1 ON 
  -13.7450   10.2720   23.0540 O.3 0  0  0  0  0  0  0  0  0  0  0  0  # atno 1    bound_to 2    3    AM2 ON 
  -14.1628    9.8129   23.8291 H   0  0  0  0  0  0  0  0  0  0  0  0  # atno 2    bound_to 1    AM2 ON 
  -14.3178   11.0326   22.7718 H   0  0  0  0  0  0  0  0  0  0  0  0  # atno 3    bound_to 1    AM2 ON 
  -13.6502    9.6269   22.2959 LP  0  0  0  0  0  0  0  0  0  0  0  0  # atno 4    bound_to 1    AM2 ON 
  -12.8424   10.6137   23.3158 LP  0  0  0  0  0  0  0  0  0  0  0  0  # atno 5    bound_to 1    AM2 ON 
  -21.1690   11.6250   24.3940 O.3 0  0  0  0  0  0  0  0  0  0  0  0  # atno 1    bound_to 2    3    AM3 ON 
  -21.4984   11.3554   25.2911 H   0  0  0  0  0  0  0  0  0  0  0  0  # atno 2    bound_to 1    AM3 ON 
  -20.3119   12.1173   24.4903 H   0  0  0  0  0  0  0  0  0  0  0  0  # atno 3    bound_to 1    AM3 ON 
  -21.8453   12.2160   23.9544 LP  0  0  0  0  0  0  0  0  0  0  0  0  # atno 4    bound_to 1    AM3 ON 
  -21.0240   10.8098   23.8333 LP  0  0  0  0  0  0  0  0  0  0  0  0  # atno 5    bound_to 1    AM3 ON 
  -14.6550   15.1580   23.4130 O.3 0  0  0  0  0  0  0  0  0  0  0  0  # atno 1    bound_to 2    3    AM4 ON 
  -13.7792   15.5598   23.6529 H   0  0  0  0  0  0  0  0  0  0  0  0  # atno 2    bound_to 1    AM4 ON 
  -15.3822   15.8025   23.6183 H   0  0  0  0  0  0  0  0  0  0  0  0  # atno 3    bound_to 1    AM4 ON 
  -14.7932   14.3201   23.9411 LP  0  0  0  0  0  0  0  0  0  0  0  0  # atno 4    bound_to 1    AM4 ON 
  -14.6665   14.9423   22.4366 LP  0  0  0  0  0  0  0  0  0  0  0  0  # atno 5    bound_to 1    AM4 ON 
  -23.6820   12.7820   28.0340 O.3 0  0  0  0  0  0  0  0  0  0  0  0  # atno 1    bound_to 2    3    AM5 ON 
  -23.5865   12.8478   29.0202 H   0  0  0  0  0  0  0  0  0  0  0  0  # atno 2    bound_to 1    AM5 ON 
  -23.6923   13.6939   27.6409 H   0  0  0  0  0  0  0  0  0  0  0  0  # atno 3    bound_to 1    AM5 ON 
  -24.5374   12.3137   27.8124 LP  0  0  0  0  0  0  0  0  0  0  0  0  # atno 4    bound_to 1    AM5 ON 
  -22.9124   12.2657   27.6583 LP  0  0  0  0  0  0  0  0  0  0  0  0  # atno 5    bound_to 1    AM5 ON 
  -16.9520   11.2350   21.5950 O.3 0  0  0  0  0  0  0  0  0  0  0  0  # atno 1    bound_to 2    3    AM6 ON 
  -16.9857   10.8601   20.6761 H   0  0  0  0  0  0  0  0  0  0  0  0  # atno 2    bound_to 1    AM6 ON 
  -16.3780   12.0454   21.6010 H   0  0  0  0  0  0  0  0  0  0  0  0  # atno 3    bound_to 1    AM6 ON 
  -16.5720   10.5528   22.2196 LP  0  0  0  0  0  0  0  0  0  0  0  0  # atno 4    bound_to 1    AM6 ON 
  -17.8760   11.4787   21.8897 LP  0  0  0  0  0  0  0  0  0  0  0  0  # atno 5    bound_to 1    AM6 ON 
  -14.9200   12.9840   21.7870 O.3 0  0  0  0  0  0  0  0  0  0  0  0  # atno 1    bound_to 2    3    AM7 ON 
  -14.0355   12.5475   21.6722 H   0  0  0  0  0  0  0  0  0  0  0  0  # atno 2    bound_to 1    AM7 ON 
  -14.8201   13.7885   22.3607 H   0  0  0  0  0  0  0  0  0  0  0  0  # atno 3    bound_to 1    AM7 ON 
  -15.5544   12.3431   22.2191 LP  0  0  0  0  0  0  0  0  0  0  0  0  # atno 4    bound_to 1    AM7 ON 
  -15.2769   13.2544   20.8928 LP  0  0  0  0  0  0  0  0  0  0  0  0  # atno 5    bound_to 1    AM7 ON 

> <Gold.Score>
     Score         DG    S(hbond)    S(metal)    S(lipo)     H(rot)  DE(clash)    DE(int)    S(bar)      intcor
     51.69     -51.69      14.97        0.00      87.27       0.00       0.00       0.00      14.00       0.00

> <Gold.Chemscore.Fitness>
51.6863

> <Gold.Chemscore.DG>
-51.6863

> <Gold.Chemscore.ZeroCoef>
-5.4800

> <Gold.Chemscore.Hbond>
14.9687

> <Gold.Chemscore.Metal>
0.0000

> <Gold.Chemscore.Lipo>
87.2720

> <Gold.Chemscore.Internal_Hbond>
0.0000

> <Gold.Chemscore.DEClash>
0.0000

> <Gold.Chemscore.DEInternal>
0.0000

> <Gold.Chemscore.Rot>
0.0000

> <Gold.Chemscore.Internal.Correction>
0.0000

> <Gold.Chemscore.SBar>
14.0000

> <Gold.Chemscore.Hbonds>
donor molecule, donor type, donor heavy atom, donor atom, acceptor molecule, acceptor atom, score
      L1  H    11    17       P1   238  0.96
     AM1  H     1     2       L1     1  0.93
     AM1  H     1     3      AM6     1  0.88
     AM2  H     1     2       P1   358  0.92
     AM3  H     1     2       P1   701  0.76
     AM3  H     1     3       L1     1  0.99
     AM4  H     1     2       P1   267  0.99
     AM4  H     1     3       P1   238  1.00
     AM6  H     1     2       P1   634  0.98
     AM6  H     1     3      AM7     1  0.96
     AM7  H     1     2       P1   419  0.98
     AM7  H     1     3      AM4     1  0.99
      P1  H   701  1501      AM5     1  0.98
      P1  H   358  1251      AM1     1  0.84
      P1  H   416  1258      AM2     1  0.82
      P1  H   669  1470      AM3     1  0.97
      P1  H   663  1465      AM2     1  0.01

> <Gold.Chemscore.Hbond.Weighted>
-49.9955

> <Gold.Chemscore.Metal.Weighted>
-0.0000

> <Gold.Chemscore.Lipo.Weighted>
-10.2108

> <Gold.Chemscore.Internal_Hbond.Weighted>
0.0000

> <Gold.Chemscore.DEClash.Weighted>
0.0000

> <Gold.Chemscore.DEInternal.Weighted>
0.0000

> <Gold.Chemscore.Rot.Weighted>
0.0000

> <Gold.Chemscore.Internal.Correction.Weighted>
0.0000

