#       Name:                F275-62BFDB0F9D1E066B-62BFDB0F9D1E066B-NMX
#       Creating user name   iorga
#       Creation time:       Wed Nov 27 15:34:13 2019


#       File generated by GOLD software.
#

@<TRIPOS>MOLECULE
F275-62BFDB0F9D1E066B-62BFDB0F9D1E066B-NMX|ligands_smiles_3D-hash|mol2|284|dock33
    20    20     1
SMALL
NO_CHARGES


@<TRIPOS>ATOM
      1 C1         -17.8330  12.5891  30.5842 C.3            1 <1>                0.0000
      2 C2         -17.4798  13.5619  29.4781 C.ar           1 <1>                0.0000
      3 C3         -16.6440  14.6688  29.7391 C.ar           1 <1>                0.0000
      4 C4         -16.3190  15.5721  28.7073 C.ar           1 <1>                0.0000
      5 F5         -15.5174  16.6326  28.9644 F              1 <1>                0.0000
      6 C6         -16.8278  15.3740  27.4094 C.ar           1 <1>                0.0000
      7 C7         -17.6622  14.2685  27.1513 C.ar           1 <1>                0.0000
      8 C8         -17.9901  13.3612  28.1790 C.ar           1 <1>                0.0000
      9 S9         -18.3101  14.0162  25.5035 S.o2           1 <1>                0.0000
     10 O10        -18.6777  12.6013  25.3397 O.2            1 <1>                0.0000
     11 O11        -19.2819  15.0834  25.2200 O.2            1 <1>                0.0000
     12 N12        -16.9245  14.3118  24.5287 N.pl3          1 <1>                0.0000
     13 H13        -17.3661  12.8716  31.5281 H              1 <1>                0.0000
     14 H14        -18.9129  12.5626  30.7332 H              1 <1>                0.0000
     15 H15        -17.4970  11.5845  30.3255 H              1 <1>                0.0000
     16 H16        -16.2492  14.8306  30.7315 H              1 <1>                0.0000
     17 H17        -16.5787  16.0694  26.6215 H              1 <1>                0.0000
     18 H18        -18.6311  12.5157  27.9760 H              1 <1>                0.0000
     19 H19        -16.8890  15.2834  24.2214 H              1 <1>                0.0000
     20 H20        -16.8893  13.6724  23.7350 H              1 <1>                0.0000
@<TRIPOS>BOND
    1    1    2 1     
    2    1   13 1     
    3    1   14 1     
    4    1   15 1     
    5    2    8 ar    
    6    2    3 ar    
    7    3    4 ar    
    8    3   16 1     
    9    4    5 1     
   10    4    6 ar    
   11    6    7 ar    
   12    6   17 1     
   13    7    8 ar    
   14    7    9 1     
   15    8   18 1     
   16    9   10 2     
   17    9   11 2     
   18    9   12 1     
   19   12   19 1     
   20   12   20 1     
@<TRIPOS>SUBSTRUCTURE
      1 ****           1
@<TRIPOS>SET
LONE_PAIRS      STATIC     ATOMS    <user>   **** ""
2 10 11
DONOR_HYDROGENS      STATIC     ATOMS    <user>   **** ""
2 19 20
ATOM$BLUE        STATIC     ATOMS    COLORGROUP SYSTEM
2 10 11
ATOM$RED        STATIC     ATOMS    COLORGROUP SYSTEM
2 19 20
@<TRIPOS>COMMENT
> <Gold.Version>
5.7.1

> <Gold.Id.Protein>
5ENC|5ENC_protein|mol2

> <Gold.Protein.RotatedTorsions>
[ 1501  701  700  697 ] final -101.10 input   60.00 | X-H torsion
[ 1497  695  694  692 ] final   33.17 input   60.00 | X-H torsion
[ 1251  358  357  355 ] final  -11.67 input   60.00 | X-H torsion
[ 1470  669  668  665 ] final   41.13 input   60.00 | X-H torsion

> <Gold.Protein.ActiveResidues>
 PRO28   PHE29   GLN31   PRO32   VAL33   TYR38   TYR41   PRO48   MET49   ASP50  
 ILE76   ASN79   SER80   TYR83   THR84   ILE91  

> <Gold.Protein.RotatedAtoms>
  -16.3806    9.3883   24.7086 H   0  0  0  0  0  0  0  0  0  0  0  0  # atno 1251 bound_to 358 
  -21.6495   11.0803   22.8725 H   0  0  0  0  0  0  0  0  0  0  0  0  # atno 1470 bound_to 669 
  -18.2556    9.4218   32.5075 H   0  0  0  0  0  0  0  0  0  0  0  0  # atno 1497 bound_to 695 
  -23.3840   11.2769   27.1011 H   0  0  0  0  0  0  0  0  0  0  0  0  # atno 1501 bound_to 701 
  -22.4115   11.3028   25.7966 LP  0  0  0  0  0  0  0  0  0  0  0  0  # atno 2046 bound_to 701 
  -22.4543    9.9855   26.7607 LP  0  0  0  0  0  0  0  0  0  0  0  0  # atno 2047 bound_to 701 
  -19.8707    9.5022   32.6895 LP  0  0  0  0  0  0  0  0  0  0  0  0  # atno 2052 bound_to 695 
  -19.0374   10.8107   32.1794 LP  0  0  0  0  0  0  0  0  0  0  0  0  # atno 2053 bound_to 695 
  -14.9843    8.6059   24.4150 LP  0  0  0  0  0  0  0  0  0  0  0  0  # atno 2056 bound_to 358 
  -15.0157   10.2380   24.4577 LP  0  0  0  0  0  0  0  0  0  0  0  0  # atno 2057 bound_to 358 

> <Gold.Protein.RotatedWaterAtoms>
  -17.7040   10.2320   24.0390 O.3 0  0  0  0  0  0  0  0  0  0  0  0  # atno 1    bound_to 2    3    AM1 ON 
  -17.6694   10.5251   23.0909 H   0  0  0  0  0  0  0  0  0  0  0  0  # atno 2    bound_to 1    AM1 ON 
  -18.2128   10.8972   24.5728 H   0  0  0  0  0  0  0  0  0  0  0  0  # atno 3    bound_to 1    AM1 ON 
  -16.7740   10.1569   24.3988 LP  0  0  0  0  0  0  0  0  0  0  0  0  # atno 4    bound_to 1    AM1 ON 
  -18.1565    9.3421   24.0965 LP  0  0  0  0  0  0  0  0  0  0  0  0  # atno 5    bound_to 1    AM1 ON 
  -13.7450   10.2720   23.0540 O.3 0  0  0  0  0  0  0  0  0  0  0  0  # atno 1    bound_to 2    3    AM2 ON 
  -13.6101   11.0611   22.4665 H   0  0  0  0  0  0  0  0  0  0  0  0  # atno 2    bound_to 1    AM2 ON 
  -14.4795   10.4589   23.6958 H   0  0  0  0  0  0  0  0  0  0  0  0  # atno 3    bound_to 1    AM2 ON 
  -12.9020   10.0835   23.5578 LP  0  0  0  0  0  0  0  0  0  0  0  0  # atno 4    bound_to 1    AM2 ON 
  -13.9843    9.4777   22.4956 LP  0  0  0  0  0  0  0  0  0  0  0  0  # atno 5    bound_to 1    AM2 ON 
  -21.1690   11.6250   24.3940 O.3 0  0  0  0  0  0  0  0  0  0  0  0  # atno 1    bound_to 2    3    AM3 ON 
  -21.5882   11.3981   25.2651 H   0  0  0  0  0  0  0  0  0  0  0  0  # atno 2    bound_to 1    AM3 ON 
  -20.2639   12.0025   24.5506 H   0  0  0  0  0  0  0  0  0  0  0  0  # atno 3    bound_to 1    AM3 ON 
  -21.7336   12.2993   23.9180 LP  0  0  0  0  0  0  0  0  0  0  0  0  # atno 4    bound_to 1    AM3 ON 
  -21.0937   10.7992   23.8351 LP  0  0  0  0  0  0  0  0  0  0  0  0  # atno 5    bound_to 1    AM3 ON 
  -14.6550   15.1580   23.4130 O.3 0  0  0  0  0  0  0  0  0  0  0  0  # atno 1    bound_to 2    3    AM4 ON 
  -13.8274   15.7067   23.4063 H   0  0  0  0  0  0  0  0  0  0  0  0  # atno 2    bound_to 1    AM4 ON 
  -15.4362   15.7397   23.6070 H   0  0  0  0  0  0  0  0  0  0  0  0  # atno 3    bound_to 1    AM4 ON 
  -14.5815   14.4525   24.1179 LP  0  0  0  0  0  0  0  0  0  0  0  0  # atno 4    bound_to 1    AM4 ON 
  -14.7753   14.7253   22.5195 LP  0  0  0  0  0  0  0  0  0  0  0  0  # atno 5    bound_to 1    AM4 ON 
  -23.6820   12.7820   28.0340 O.3 0  0  0  0  0  0  0  0  0  0  0  0  # atno 1    bound_to 2    3    AM5 ON 
  -23.0217   13.2505   28.6089 H   0  0  0  0  0  0  0  0  0  0  0  0  # atno 2    bound_to 1    AM5 ON 
  -24.5634   13.2339   28.1063 H   0  0  0  0  0  0  0  0  0  0  0  0  # atno 3    bound_to 1    AM5 ON 
  -23.7691   11.8317   28.3328 LP  0  0  0  0  0  0  0  0  0  0  0  0  # atno 4    bound_to 1    AM5 ON 
  -23.3724   12.8055   27.0834 LP  0  0  0  0  0  0  0  0  0  0  0  0  # atno 5    bound_to 1    AM5 ON 
  -16.9520   11.2350   21.5950 O.3 0  0  0  0  0  0  0  0  0  0  0  0  # atno 1    bound_to 2    3    AM6 ON 
  -16.9513   10.8011   20.7018 H   0  0  0  0  0  0  0  0  0  0  0  0  # atno 2    bound_to 1    AM6 ON 
  -16.3556   12.0289   21.5778 H   0  0  0  0  0  0  0  0  0  0  0  0  # atno 3    bound_to 1    AM6 ON 
  -16.6233   10.5860   22.2811 LP  0  0  0  0  0  0  0  0  0  0  0  0  # atno 4    bound_to 1    AM6 ON 
  -17.8819   11.5215   21.8257 LP  0  0  0  0  0  0  0  0  0  0  0  0  # atno 5    bound_to 1    AM6 ON 
  -14.9200   12.9840   21.7870 O.3 0  0  0  0  0  0  0  0  0  0  0  0  # atno 1    bound_to 2    3    AM7 ON 
  -14.0248   12.6043   21.5857 H   0  0  0  0  0  0  0  0  0  0  0  0  # atno 2    bound_to 1    AM7 ON 
  -14.8235   13.7387   22.4253 H   0  0  0  0  0  0  0  0  0  0  0  0  # atno 3    bound_to 1    AM7 ON 
  -15.4987   12.2764   22.1924 LP  0  0  0  0  0  0  0  0  0  0  0  0  # atno 4    bound_to 1    AM7 ON 
  -15.3399   13.3141   20.9416 LP  0  0  0  0  0  0  0  0  0  0  0  0  # atno 5    bound_to 1    AM7 ON 

> <Gold.Score>
     Score         DG    S(hbond)    S(metal)    S(lipo)     H(rot)  DE(clash)    DE(int)    S(bar)      intcor
     52.70     -53.00      15.02        0.00      96.93       0.00       0.17       0.14      14.00       0.99

> <Gold.Chemscore.Fitness>
52.6958

> <Gold.Chemscore.DG>
-53.0007

> <Gold.Chemscore.ZeroCoef>
-5.4800

> <Gold.Chemscore.Hbond>
15.0240

> <Gold.Chemscore.Metal>
0.0000

> <Gold.Chemscore.Lipo>
96.9268

> <Gold.Chemscore.Internal_Hbond>
0.0000

> <Gold.Chemscore.DEClash>
0.1676

> <Gold.Chemscore.DEInternal>
0.1373

> <Gold.Chemscore.Rot>
0.0000

> <Gold.Chemscore.Internal.Correction>
0.9856

> <Gold.Chemscore.SBar>
14.0000

> <Gold.Chemscore.Hbonds>
donor molecule, donor type, donor heavy atom, donor atom, acceptor molecule, acceptor atom, score
      L1  H    12    19       P1   238  1.00
     AM1  H     1     2      AM6     1  0.98
     AM1  H     1     3       L1    10  0.99
     AM2  H     1     2       P1   419  0.81
     AM2  H     1     3       P1   358  0.59
     AM3  H     1     2       P1   701  0.75
     AM3  H     1     3       L1    10  1.00
     AM4  H     1     2       P1   267  1.00
     AM4  H     1     3       P1   238  1.00
     AM6  H     1     2       P1   634  0.99
     AM6  H     1     3      AM7     1  0.97
     AM7  H     1     2       P1   419  1.00
     AM7  H     1     3      AM4     1  0.97
      P1  H   701  1501      AM5     1  0.98
      P1  H   358  1251      AM1     1  0.84
      P1  H   669  1470      AM3     1  0.98
      P1  H   663  1465      AM2     1  0.16

> <Gold.Chemscore.Hbond.Weighted>
-50.1803

> <Gold.Chemscore.Metal.Weighted>
-0.0000

> <Gold.Chemscore.Lipo.Weighted>
-11.3404

> <Gold.Chemscore.Internal_Hbond.Weighted>
0.0000

> <Gold.Chemscore.DEClash.Weighted>
0.1676

> <Gold.Chemscore.DEInternal.Weighted>
0.1373

> <Gold.Chemscore.Rot.Weighted>
0.0000

> <Gold.Chemscore.Internal.Correction.Weighted>
0.9856

