#       Name:                F6-7F02EC4C057E68FC-7F02EC4C057E68FC-NMX
#       Creating user name   iorga
#       Creation time:       Mon Dec  9 17:59:16 2019


#       File generated by GOLD software.
#

@<TRIPOS>MOLECULE
F6-7F02EC4C057E68FC-7F02EC4C057E68FC-NMX|ligands_smiles_3D-hash-site2|mol2|2|dock16
    24    24     1
SMALL
NO_CHARGES


@<TRIPOS>ATOM
      1 Br1        -21.0481  21.8919  10.0961 Br             1 <1>                0.0000
      2 C2         -22.6184  20.8677  10.4218 C.ar           1 <1>                0.0000
      3 C3         -23.8651  21.3253   9.9546 C.ar           1 <1>                0.0000
      4 C4         -25.0457  20.5753  10.1915 C.ar           1 <1>                0.0000
      5 O5         -26.2976  20.9703   9.7650 O.3            1 <1>                0.0000
      6 C6         -26.4092  22.1793   9.0283 C.3            1 <1>                0.0000
      7 C7         -24.9478  19.3555  10.9042 C.ar           1 <1>                0.0000
      8 C8         -26.1874  18.5220  11.1812 C.3            1 <1>                0.0000
      9 O9         -26.3654  17.4882  10.2371 O.3            1 <1>                0.0000
     10 C10        -23.6953  18.9026  11.3702 C.ar           1 <1>                0.0000
     11 C11        -22.5325  19.6563  11.1301 C.ar           1 <1>                0.0000
     12 H12        -23.8894  22.2601   9.4158 H              1 <1>                0.0000
     13 H13        -27.4548  22.3473   8.7707 H              1 <1>                0.0000
     14 H14        -25.8439  22.1319   8.0966 H              1 <1>                0.0000
     15 H15        -26.0727  23.0361   9.6134 H              1 <1>                0.0000
     16 H16        -26.1258  18.0871  12.1792 H              1 <1>                0.0000
     17 H17        -27.0735  19.1577  11.1745 H              1 <1>                0.0000
     18 H18        -25.9239  16.7147  10.5525 H              1 <1>                0.0000
     19 H19        -23.6227  17.9740  11.9174 H              1 <1>                0.0000
     20 H20        -21.5766  19.3051  11.4902 H              1 <1>                0.0000
     21 ****       -26.8708  21.0660  10.5788 LP             1 <1>                0.0000
     22 ****       -26.6582  20.2378   9.1876 LP             1 <1>                0.0000
     23 ****       -25.9765  17.7637   9.3580 LP             1 <1>                0.0000
     24 ****       -27.3407  17.2979  10.1252 LP             1 <1>                0.0000
@<TRIPOS>BOND
    1    1    2 1     
    2    2   11 ar    
    3    2    3 ar    
    4    3    4 ar    
    5    3   12 1     
    6    4    5 1     
    7    4    7 ar    
    8    5    6 1     
    9    6   13 1     
   10    6   14 1     
   11    6   15 1     
   12    7    8 1     
   13    7   10 ar    
   14    8    9 1     
   15    8   16 1     
   16    8   17 1     
   17    9   18 1     
   18   10   11 ar    
   19   10   19 1     
   20   11   20 1     
   21    5   21 1     
   22    5   22 1     
   23    9   23 1     
   24    9   24 1     
@<TRIPOS>SUBSTRUCTURE
      1 ****           1
@<TRIPOS>SET
LONE_PAIRS      STATIC     ATOMS    <user>   **** ""
4 21 22 23 24
DONOR_HYDROGENS      STATIC     ATOMS    <user>   **** ""
1 18
ATOM$BLUE        STATIC     ATOMS    COLORGROUP SYSTEM
4 21 22 23 24
ATOM$RED        STATIC     ATOMS    COLORGROUP SYSTEM
1 18
@<TRIPOS>COMMENT
> <Gold.Version>
5.7.1

> <Gold.Id.Protein>
3MB3|3MB3_protein|mol2

> <Gold.Protein.ActiveResidues>
 LEU1331 ILE1332 GLN1334 CYS1335 GLU1336 ASP1337 ARG1409 LEU1410 ALA1412 PHE1413

> <Gold.Score>
     Score         DG    S(hbond)    S(metal)    S(lipo)     H(rot)  DE(clash)    DE(int)     intcor
     17.16     -17.56       0.97        0.00     110.83       1.62       0.06       0.34       0.00

> <Gold.Chemscore.Fitness>
17.1627

> <Gold.Chemscore.DG>
-17.5576

> <Gold.Chemscore.ZeroCoef>
-5.4800

> <Gold.Chemscore.Hbond>
0.9743

> <Gold.Chemscore.Metal>
0.0000

> <Gold.Chemscore.Lipo>
110.8271

> <Gold.Chemscore.Internal_Hbond>
0.0000

> <Gold.Chemscore.DEClash>
0.0595

> <Gold.Chemscore.DEInternal>
0.3354

> <Gold.Chemscore.Rot>
1.6185

> <Gold.Chemscore.Internal.Correction>
0.0000

> <Gold.Chemscore.Hbonds>
donor molecule, donor type, donor heavy atom, donor atom, acceptor molecule, acceptor atom, score
      L1  H     9    18       P1   777  0.97

> <Gold.Chemscore.Hbond.Weighted>
-3.2543

> <Gold.Chemscore.Metal.Weighted>
-0.0000

> <Gold.Chemscore.Lipo.Weighted>
-12.9668

> <Gold.Chemscore.Internal_Hbond.Weighted>
0.0000

> <Gold.Chemscore.DEClash.Weighted>
0.0595

> <Gold.Chemscore.DEInternal.Weighted>
0.3354

> <Gold.Chemscore.Rot.Weighted>
4.1434

> <Gold.Chemscore.Internal.Correction.Weighted>
0.0000

