#       Name:                F467-012904FD941EF510-B18A4ACDB22915C3-NMX
#       Creating user name   iorga
#       Creation time:       Wed Nov 27 18:19:04 2019


#       File generated by GOLD software.
#

@<TRIPOS>MOLECULE
F467-012904FD941EF510-B18A4ACDB22915C3-NMX|ligands_smiles_3D-hash|mol2|481|dock12
    26    26     1
SMALL
NO_CHARGES


@<TRIPOS>ATOM
      1 C1         -18.2582  13.2440  27.1376 C.3            1 <1>                0.0000
      2 N2         -17.7337  14.3609  26.3613 N.pl3          1 <1>                0.0000
      3 C3         -18.3663  14.6805  25.0810 C.3            1 <1>                0.0000
      4 C4         -17.8373  13.8165  23.9225 C.3            1 <1>                0.0000
      5 O5         -16.4898  14.1355  23.6483 O.3            1 <1>                0.0000
      6 C6         -16.9235  15.3172  27.0169 C.ar           1 <1>                0.0000
      7 C7         -16.6445  15.2718  28.4070 C.ar           1 <1>                0.0000
      8 C8         -15.8258  16.2592  28.9938 C.ar           1 <1>                0.0000
      9 C9         -15.2916  17.2834  28.1884 C.ar           1 <1>                0.0000
     10 C10        -15.5913  17.2917  26.8134 C.ar           1 <1>                0.0000
     11 H11        -17.4489  12.5945  27.4721 H              1 <1>                0.0000
     12 H12        -18.8065  13.6021  28.0098 H              1 <1>                0.0000
     13 H13        -18.9408  12.6395  26.5394 H              1 <1>                0.0000
     14 H14        -19.4449  14.5499  25.1710 H              1 <1>                0.0000
     15 H15        -18.2286  15.7392  24.8570 H              1 <1>                0.0000
     16 H16        -17.9451  12.7498  24.1218 H              1 <1>                0.0000
     17 H17        -18.4102  14.0313  23.0203 H              1 <1>                0.0000
     18 H18        -16.4147  15.0731  23.5525 H              1 <1>                0.0000
     19 H19        -17.0433  14.4919  29.0380 H              1 <1>                0.0000
     20 H20        -15.6094  16.2296  30.0515 H              1 <1>                0.0000
     21 H21        -14.6618  18.0487  28.6184 H              1 <1>                0.0000
     22 H22        -15.2266  18.0348  26.1190 H              1 <1>                0.0000
     23 N23        -16.3793  16.3268  26.2913 N.pl3          1 <1>                0.0000
     24 H24        -16.5759  16.3597  25.2909 H              1 <1>                0.0000
     25 ****       -16.2030  13.6865  22.8020 LP             1 <1>                0.0000
     26 ****       -15.9104  13.8265  24.4025 LP             1 <1>                0.0000
@<TRIPOS>BOND
    1    1    2 1     
    2    1   11 1     
    3    1   12 1     
    4    1   13 1     
    5    2    3 1     
    6    2    6 1     
    7    3    4 1     
    8    3   14 1     
    9    3   15 1     
   10    4    5 1     
   11    4   16 1     
   12    4   17 1     
   13    5   18 1     
   14    6    7 ar    
   15    6   23 ar    
   16    7    8 ar    
   17    7   19 1     
   18    8    9 ar    
   19    8   20 1     
   20    9   10 ar    
   21    9   21 1     
   22   10   22 1     
   23   10   23 ar    
   24   23   24 1     
   25    5   25 1     
   26    5   26 1     
@<TRIPOS>SUBSTRUCTURE
      1 ****           1
@<TRIPOS>SET
LONE_PAIRS      STATIC     ATOMS    <user>   **** ""
2 25 26
DONOR_HYDROGENS      STATIC     ATOMS    <user>   **** ""
2 18 24
ATOM$BLUE        STATIC     ATOMS    COLORGROUP SYSTEM
2 25 26
ATOM$RED        STATIC     ATOMS    COLORGROUP SYSTEM
2 18 24
@<TRIPOS>COMMENT
> <Gold.Version>
5.7.1

> <Gold.Id.Protein>
5ENC|5ENC_protein|mol2

> <Gold.Protein.RotatedTorsions>
[ 1501  701  700  697 ] final -104.99 input   60.00 | X-H torsion
[ 1497  695  694  692 ] final  -20.68 input   60.00 | X-H torsion
[ 1251  358  357  355 ] final   -3.96 input   60.00 | X-H torsion
[ 1470  669  668  665 ] final   43.69 input   60.00 | X-H torsion

> <Gold.Protein.ActiveResidues>
 PRO28   PHE29   GLN31   PRO32   VAL33   TYR38   TYR41   PRO48   MET49   ASP50  
 ILE76   ASN79   SER80   TYR83   THR84   ILE91  

> <Gold.Protein.RotatedAtoms>
  -16.3747    9.5140   24.7103 H   0  0  0  0  0  0  0  0  0  0  0  0  # atno 1251 bound_to 358 
  -21.6281   11.1159   22.8680 H   0  0  0  0  0  0  0  0  0  0  0  0  # atno 1470 bound_to 669 
  -18.9683    9.0163   32.7231 H   0  0  0  0  0  0  0  0  0  0  0  0  # atno 1497 bound_to 695 
  -23.3809   11.3271   27.0623 H   0  0  0  0  0  0  0  0  0  0  0  0  # atno 1501 bound_to 701 
  -22.3758   11.2510   25.7848 LP  0  0  0  0  0  0  0  0  0  0  0  0  # atno 2046 bound_to 701 
  -22.4931    9.9866   26.8115 LP  0  0  0  0  0  0  0  0  0  0  0  0  # atno 2047 bound_to 701 
  -19.9024   10.3186   32.4411 LP  0  0  0  0  0  0  0  0  0  0  0  0  # atno 2052 bound_to 695 
  -18.2879   10.4028   32.2107 LP  0  0  0  0  0  0  0  0  0  0  0  0  # atno 2053 bound_to 695 
  -15.0949    8.5474   24.4353 LP  0  0  0  0  0  0  0  0  0  0  0  0  # atno 2056 bound_to 358 
  -14.9111   10.1700   24.4357 LP  0  0  0  0  0  0  0  0  0  0  0  0  # atno 2057 bound_to 358 

> <Gold.Protein.RotatedWaterAtoms>
  -17.7040   10.2320   24.0390 O.3 0  0  0  0  0  0  0  0  0  0  0  0  # atno 1    bound_to 2    3    AM1 ON 
  -17.7371   10.4942   23.0818 H   0  0  0  0  0  0  0  0  0  0  0  0  # atno 2    bound_to 1    AM1 ON 
  -18.2973   10.8288   24.5664 H   0  0  0  0  0  0  0  0  0  0  0  0  # atno 3    bound_to 1    AM1 ON 
  -16.7656   10.3135   24.3747 LP  0  0  0  0  0  0  0  0  0  0  0  0  # atno 4    bound_to 1    AM1 ON 
  -18.0117    9.2855   24.1361 LP  0  0  0  0  0  0  0  0  0  0  0  0  # atno 5    bound_to 1    AM1 ON 
  -13.7450   10.2720   23.0540 O.3 0  0  0  0  0  0  0  0  0  0  0  0  # atno 1    bound_to 2    3    AM2 ON 
  -14.3050   11.0480   22.7887 H   0  0  0  0  0  0  0  0  0  0  0  0  # atno 2    bound_to 1    AM2 ON 
  -14.1486    9.8277   23.8452 H   0  0  0  0  0  0  0  0  0  0  0  0  # atno 3    bound_to 1    AM2 ON 
  -12.8242   10.5880   23.2827 LP  0  0  0  0  0  0  0  0  0  0  0  0  # atno 4    bound_to 1    AM2 ON 
  -13.6955    9.6219   22.2957 LP  0  0  0  0  0  0  0  0  0  0  0  0  # atno 5    bound_to 1    AM2 ON 
  -21.1690   11.6250   24.3940 O.3 0  0  0  0  0  0  0  0  0  0  0  0  # atno 1    bound_to 2    3    AM3 ON 
  -21.5359   11.2440   25.2344 H   0  0  0  0  0  0  0  0  0  0  0  0  # atno 2    bound_to 1    AM3 ON 
  -20.8058   12.5319   24.5726 H   0  0  0  0  0  0  0  0  0  0  0  0  # atno 3    bound_to 1    AM3 ON 
  -21.8962   11.6858   23.7103 LP  0  0  0  0  0  0  0  0  0  0  0  0  # atno 4    bound_to 1    AM3 ON 
  -20.4381   11.0346   24.0516 LP  0  0  0  0  0  0  0  0  0  0  0  0  # atno 5    bound_to 1    AM3 ON 
  -14.6550   15.1580   23.4130 O.3 0  0  0  0  0  0  0  0  0  0  0  0  # atno 1    bound_to 2    3    AM4 ON 
  -13.7692   15.5631   23.6060 H   0  0  0  0  0  0  0  0  0  0  0  0  # atno 2    bound_to 1    AM4 ON 
  -15.3657   15.8397   23.5413 H   0  0  0  0  0  0  0  0  0  0  0  0  # atno 3    bound_to 1    AM4 ON 
  -14.8131   14.3906   24.0344 LP  0  0  0  0  0  0  0  0  0  0  0  0  # atno 4    bound_to 1    AM4 ON 
  -14.6733   14.8310   22.4681 LP  0  0  0  0  0  0  0  0  0  0  0  0  # atno 5    bound_to 1    AM4 ON 
  -23.6820   12.7820   28.0340 O.3 0  0  0  0  0  0  0  0  0  0  0  0  # atno 1    bound_to 2    3    AM5 ON 
  -23.6832   12.7860   29.0270 H   0  0  0  0  0  0  0  0  0  0  0  0  # atno 2    bound_to 1    AM5 ON 
  -23.6623   13.7168   27.6992 H   0  0  0  0  0  0  0  0  0  0  0  0  # atno 3    bound_to 1    AM5 ON 
  -24.5076   12.3261   27.7015 LP  0  0  0  0  0  0  0  0  0  0  0  0  # atno 4    bound_to 1    AM5 ON 
  -22.8750   12.2926   27.7036 LP  0  0  0  0  0  0  0  0  0  0  0  0  # atno 5    bound_to 1    AM5 ON 
  -16.9520   11.2350   21.5950 O.3 0  0  0  0  0  0  0  0  0  0  0  0  # atno 1    bound_to 2    3    AM6 ON 
  -17.0799   10.8764   20.6779 H   0  0  0  0  0  0  0  0  0  0  0  0  # atno 2    bound_to 1    AM6 ON 
  -16.3066   11.9894   21.5684 H   0  0  0  0  0  0  0  0  0  0  0  0  # atno 3    bound_to 1    AM6 ON 
  -16.5966   10.5130   22.1887 LP  0  0  0  0  0  0  0  0  0  0  0  0  # atno 4    bound_to 1    AM6 ON 
  -17.8284   11.5585   21.9517 LP  0  0  0  0  0  0  0  0  0  0  0  0  # atno 5    bound_to 1    AM6 ON 
  -14.9200   12.9840   21.7870 O.3 0  0  0  0  0  0  0  0  0  0  0  0  # atno 1    bound_to 2    3    AM7 ON 
  -14.8688   13.8091   22.3371 H   0  0  0  0  0  0  0  0  0  0  0  0  # atno 2    bound_to 1    AM7 ON 
  -14.0072   12.7240   21.4945 H   0  0  0  0  0  0  0  0  0  0  0  0  # atno 3    bound_to 1    AM7 ON 
  -15.4916   13.1536   20.9842 LP  0  0  0  0  0  0  0  0  0  0  0  0  # atno 4    bound_to 1    AM7 ON 
  -15.3190   12.2453   22.3303 LP  0  0  0  0  0  0  0  0  0  0  0  0  # atno 5    bound_to 1    AM7 ON 

> <Gold.Score>
     Score         DG    S(hbond)    S(metal)    S(lipo)     H(rot)  DE(clash)    DE(int)    S(bar)      intcor
     43.87     -44.06      14.25        0.00      81.26       1.76       0.01       0.18      14.00       0.12

> <Gold.Chemscore.Fitness>
43.8728

> <Gold.Chemscore.DG>
-44.0595

> <Gold.Chemscore.ZeroCoef>
-5.4800

> <Gold.Chemscore.Hbond>
14.2480

> <Gold.Chemscore.Metal>
0.0000

> <Gold.Chemscore.Lipo>
81.2592

> <Gold.Chemscore.Internal_Hbond>
0.0000

> <Gold.Chemscore.DEClash>
0.0089

> <Gold.Chemscore.DEInternal>
0.1778

> <Gold.Chemscore.Rot>
1.7641

> <Gold.Chemscore.Internal.Correction>
0.1208

> <Gold.Chemscore.SBar>
14.0000

> <Gold.Chemscore.Hbonds>
donor molecule, donor type, donor heavy atom, donor atom, acceptor molecule, acceptor atom, score
      L1  H     5    18       P1   238  1.00
      L1  H    23    24       P1   238  0.99
     AM1  H     1     2      AM6     1  0.95
     AM2  H     1     3       P1   358  0.91
     AM3  H     1     2       P1   701  0.71
     AM4  H     1     2       P1   267  1.00
     AM4  H     1     3       P1   238  1.00
     AM6  H     1     2       P1   634  0.99
     AM6  H     1     3      AM7     1  0.99
     AM7  H     1     2      AM4     1  0.98
     AM7  H     1     3       P1   419  1.00
      P1  H   701  1501      AM5     1  0.99
      P1  H   358  1251      AM1     1  0.93
      P1  H   416  1258      AM2     1  0.82
      P1  H   669  1470      AM3     1  0.97
      P1  H   663  1465      AM2     1  0.02

> <Gold.Chemscore.Hbond.Weighted>
-47.5883

> <Gold.Chemscore.Metal.Weighted>
-0.0000

> <Gold.Chemscore.Lipo.Weighted>
-9.5073

> <Gold.Chemscore.Internal_Hbond.Weighted>
0.0000

> <Gold.Chemscore.DEClash.Weighted>
0.0089

> <Gold.Chemscore.DEInternal.Weighted>
0.1778

> <Gold.Chemscore.Rot.Weighted>
4.5161

> <Gold.Chemscore.Internal.Correction.Weighted>
0.1208

