#       Name:                F400-282A4B92CC044B2D-C3C58BBEA56E794A-NMX
#       Creating user name   iorga
#       Creation time:       Mon Dec  9 18:01:08 2019


#       File generated by GOLD software.
#

@<TRIPOS>MOLECULE
F400-282A4B92CC044B2D-C3C58BBEA56E794A-NMX|ligands_smiles_3D-hash-site2|mol2|5|dock18
    30    30     1
SMALL
NO_CHARGES


@<TRIPOS>ATOM
      1 C1         -26.7153  16.7018   9.2846 C.3            1 <1>                0.0000
      2 C2         -26.8368  17.9173  10.2067 C.3            1 <1>                0.0000
      3 O3         -25.5597  18.5285  10.3269 O.3            1 <1>                0.0000
      4 C4         -25.4817  19.7616  10.9388 C.ar           1 <1>                0.0000
      5 C5         -26.6301  20.2106  11.6224 C.ar           1 <1>                0.0000
      6 C6         -26.6390  21.4564  12.2784 C.ar           1 <1>                0.0000
      7 C7         -25.4916  22.2750  12.2600 C.ar           1 <1>                0.0000
      8 C8         -25.4998  23.6224  12.9627 C.3            1 <1>                0.0000
      9 C9         -24.3133  23.6717  13.9271 C.2            1 <1>                0.0000
     10 O10        -24.0499  22.6278  14.5637 O.co2          1 <1>                0.0000
     11 C11        -24.3391  21.8366  11.5764 C.ar           1 <1>                0.0000
     12 C12        -24.3311  20.5899  10.9211 C.ar           1 <1>                0.0000
     13 H13        -27.6773  16.2016   9.1714 H              1 <1>                0.0000
     14 H14        -26.3719  16.9957   8.2925 H              1 <1>                0.0000
     15 H15        -26.0060  15.9768   9.6847 H              1 <1>                0.0000
     16 H16        -27.1985  17.5980  11.1852 H              1 <1>                0.0000
     17 H17        -27.5578  18.6215   9.7884 H              1 <1>                0.0000
     18 H18        -27.5146  19.5914  11.6462 H              1 <1>                0.0000
     19 H19        -27.5276  21.7805  12.8002 H              1 <1>                0.0000
     20 H20        -25.4269  24.4309  12.2340 H              1 <1>                0.0000
     21 H21        -26.4347  23.7618  13.5072 H              1 <1>                0.0000
     22 H22        -23.4539  22.4554  11.5580 H              1 <1>                0.0000
     23 H23        -23.4272  20.2916  10.4129 H              1 <1>                0.0000
     24 O24        -23.6862  24.7510  14.0060 O.co2          1 <1>                0.0000
     25 ****       -25.1928  18.6327   9.4024 LP             1 <1>                0.0000
     26 ****       -24.9792  17.9022  10.8472 LP             1 <1>                0.0000
     27 ****       -23.2797  22.6119  15.2014 LP             1 <1>                0.0000
     28 ****       -24.6095  21.8090  14.4351 LP             1 <1>                0.0000
     29 ****       -22.9000  24.8288  14.6191 LP             1 <1>                0.0000
     30 ****       -23.9710  25.5362  13.4561 LP             1 <1>                0.0000
@<TRIPOS>BOND
    1    1    2 1     
    2    1   13 1     
    3    1   14 1     
    4    1   15 1     
    5    2    3 1     
    6    2   16 1     
    7    2   17 1     
    8    3    4 1     
    9    4   12 ar    
   10    4    5 ar    
   11    5    6 ar    
   12    5   18 1     
   13    6    7 ar    
   14    6   19 1     
   15    7    8 1     
   16    7   11 ar    
   17    8    9 1     
   18    8   20 1     
   19    8   21 1     
   20    9   10 ar    
   21    9   24 ar    
   22   11   12 ar    
   23   11   22 1     
   24   12   23 1     
   25    3   25 1     
   26    3   26 1     
   27   10   27 1     
   28   10   28 1     
   29   24   29 1     
   30   24   30 1     
@<TRIPOS>SUBSTRUCTURE
      1 ****           1
@<TRIPOS>SET
LONE_PAIRS      STATIC     ATOMS    <user>   **** ""
6 25 26 27 28 29 30
ATOM$BLUE        STATIC     ATOMS    COLORGROUP SYSTEM
6 25 26 27 28 29 30
@<TRIPOS>COMMENT
> <Gold.Version>
5.7.1

> <Gold.Id.Protein>
xxxx|xxxx_protein|mol2

> <Gold.Protein.ActiveResidues>
 LEU1331 GLN1334 CYS1335 GLU1336 ASP1337 ARG1409 LEU1410 ALA1412 PHE1413

> <Gold.Score>
     Score         DG    S(hbond)    S(metal)    S(lipo)     H(rot)  DE(clash)    DE(int)     intcor
     15.21     -15.87       1.87        0.00      74.96       1.81       0.20       0.47       0.00

> <Gold.Chemscore.Fitness>
15.2096

> <Gold.Chemscore.DG>
-15.8719

> <Gold.Chemscore.ZeroCoef>
-5.4800

> <Gold.Chemscore.Hbond>
1.8703

> <Gold.Chemscore.Metal>
0.0000

> <Gold.Chemscore.Lipo>
74.9561

> <Gold.Chemscore.Internal_Hbond>
0.0000

> <Gold.Chemscore.DEClash>
0.1962

> <Gold.Chemscore.DEInternal>
0.4661

> <Gold.Chemscore.Rot>
1.8066

> <Gold.Chemscore.Internal.Correction>
0.0006

> <Gold.Chemscore.Hbonds>
donor molecule, donor type, donor heavy atom, donor atom, acceptor molecule, acceptor atom, score
      P1  H   189  1203       L1    10  0.99
      P1  H   180  1080       L1    24  0.88

> <Gold.Chemscore.Hbond.Weighted>
-6.2469

> <Gold.Chemscore.Metal.Weighted>
-0.0000

> <Gold.Chemscore.Lipo.Weighted>
-8.7699

> <Gold.Chemscore.Internal_Hbond.Weighted>
0.0000

> <Gold.Chemscore.DEClash.Weighted>
0.1962

> <Gold.Chemscore.DEInternal.Weighted>
0.4661

> <Gold.Chemscore.Rot.Weighted>
4.6249

> <Gold.Chemscore.Internal.Correction.Weighted>
0.0006

