#       Name:                F777-3CC14C2C0D668247-3CC14C2C0D668247-NMX
#       Creating user name   iorga
#       Creation time:       Mon Dec  9 18:01:19 2019


#       File generated by GOLD software.
#

@<TRIPOS>MOLECULE
F777-3CC14C2C0D668247-3CC14C2C0D668247-NMX|ligands_smiles_3D-hash-site2|mol2|7|dock36
    17    17     1
SMALL
NO_CHARGES


@<TRIPOS>ATOM
      1 O1         -24.4117  18.8536  13.2408 O.3            1 <1>                0.0000
      2 C2         -24.5972  19.5815  12.0980 C.ar           1 <1>                0.0000
      3 C3         -24.4883  20.9942  12.0952 C.ar           1 <1>                0.0000
      4 C4         -24.1739  21.7341  13.3098 C.1            1 <1>                0.0000
      5 N5         -23.9240  22.3212  14.2752 N.1            1 <1>                0.0000
      6 C6         -24.6874  21.7070  10.8940 C.ar           1 <1>                0.0000
      7 C7         -24.9927  21.0208   9.7029 C.ar           1 <1>                0.0000
      8 Br8        -25.2593  21.9915   8.0882 Br             1 <1>                0.0000
      9 C9         -25.1006  19.6173   9.7068 C.ar           1 <1>                0.0000
     10 C10        -24.9032  18.9003  10.9022 C.ar           1 <1>                0.0000
     11 H11        -24.8655  19.2116  13.9885 H              1 <1>                0.0000
     12 H12        -24.6068  22.7848  10.8801 H              1 <1>                0.0000
     13 H13        -25.3348  19.0898   8.7939 H              1 <1>                0.0000
     14 H14        -24.9875  17.8234  10.8980 H              1 <1>                0.0000
     15 ****       -23.4333  18.8274  13.4455 LP             1 <1>                0.0000
     16 ****       -24.7442  17.9238  13.0827 LP             1 <1>                0.0000
     17 ****       -23.7081  22.8285  15.1095 LP             1 <1>                0.0000
@<TRIPOS>BOND
    1    1    2 1     
    2    1   11 1     
    3    2   10 ar    
    4    2    3 ar    
    5    3    4 1     
    6    3    6 ar    
    7    4    5 3     
    8    6    7 ar    
    9    6   12 1     
   10    7    8 1     
   11    7    9 ar    
   12    9   10 ar    
   13    9   13 1     
   14   10   14 1     
   15    1   15 1     
   16    1   16 1     
   17    5   17 1     
@<TRIPOS>SUBSTRUCTURE
      1 ****           1
@<TRIPOS>SET
LONE_PAIRS      STATIC     ATOMS    <user>   **** ""
3 15 16 17
DONOR_HYDROGENS      STATIC     ATOMS    <user>   **** ""
1 11
ATOM$BLUE        STATIC     ATOMS    COLORGROUP SYSTEM
3 15 16 17
ATOM$RED        STATIC     ATOMS    COLORGROUP SYSTEM
1 11
@<TRIPOS>COMMENT
> <Gold.Version>
5.7.1

> <Gold.Id.Protein>
xxxx|xxxx_protein|mol2

> <Gold.Protein.ActiveResidues>
 LEU1331 GLN1334 CYS1335 GLU1336 ASP1337 ARG1409 LEU1410 ALA1412 PHE1413

> <Gold.Score>
     Score         DG    S(hbond)    S(metal)    S(lipo)     H(rot)  DE(clash)    DE(int)     intcor
     18.03     -18.09       1.93        0.00      74.55       1.00       0.06       0.00       0.00

> <Gold.Chemscore.Fitness>
18.0301

> <Gold.Chemscore.DG>
-18.0882

> <Gold.Chemscore.ZeroCoef>
-5.4800

> <Gold.Chemscore.Hbond>
1.9300

> <Gold.Chemscore.Metal>
0.0000

> <Gold.Chemscore.Lipo>
74.5472

> <Gold.Chemscore.Internal_Hbond>
0.0000

> <Gold.Chemscore.DEClash>
0.0581

> <Gold.Chemscore.DEInternal>
0.0000

> <Gold.Chemscore.Rot>
1.0000

> <Gold.Chemscore.Internal.Correction>
0.0000

> <Gold.Chemscore.Hbonds>
donor molecule, donor type, donor heavy atom, donor atom, acceptor molecule, acceptor atom, score
      L1  H     1    11       P1   194  0.93
      P1  H   189  1203       L1     5  1.00

> <Gold.Chemscore.Hbond.Weighted>
-6.4462

> <Gold.Chemscore.Metal.Weighted>
-0.0000

> <Gold.Chemscore.Lipo.Weighted>
-8.7220

> <Gold.Chemscore.Internal_Hbond.Weighted>
0.0000

> <Gold.Chemscore.DEClash.Weighted>
0.0581

> <Gold.Chemscore.DEInternal.Weighted>
0.0000

> <Gold.Chemscore.Rot.Weighted>
2.5600

> <Gold.Chemscore.Internal.Correction.Weighted>
0.0000

