#       Name:                F687-DE253BF008E42DF8-DE253BF008E42DF8-NMX
#       Creating user name   iorga
#       Creation time:       Wed Nov 27 16:21:54 2019


#       File generated by GOLD software.
#

@<TRIPOS>MOLECULE
F687-DE253BF008E42DF8-DE253BF008E42DF8-NMX|ligands_smiles_3D-hash|mol2|705|dock6
    25    26     1
SMALL
NO_CHARGES


@<TRIPOS>ATOM
      1 F1         -15.8117  17.1675  26.3825 F              1 <1>                0.0000
      2 C2         -16.2069  16.2921  27.3387 C.ar           1 <1>                0.0000
      3 C3         -15.8994  16.5561  28.6877 C.ar           1 <1>                0.0000
      4 C4         -16.3018  15.6573  29.6930 C.ar           1 <1>                0.0000
      5 C5         -17.0136  14.4935  29.3480 C.ar           1 <1>                0.0000
      6 C6         -17.3229  14.2276  27.9998 C.ar           1 <1>                0.0000
      7 C7         -16.9203  15.1263  26.9825 C.ar           1 <1>                0.0000
      8 N8         -17.2006  14.9060  25.6259 N.pl3          1 <1>                0.0000
      9 C9         -17.6889  13.6214  25.1478 C.3            1 <1>                0.0000
     10 C10        -19.1013  13.3320  25.5739 C.2            1 <1>                0.0000
     11 C11        -20.0139  14.1854  26.2641 C.2            1 <1>                0.0000
     12 C12        -21.1442  13.4303  26.3950 C.2            1 <1>                0.0000
     13 N13        -20.8732  12.2166  25.8094 N.pl3          1 <1>                0.0000
     14 N14        -19.6270  12.1449  25.3055 N.2            1 <1>                0.0000
     15 H15        -15.3531  17.4498  28.9509 H              1 <1>                0.0000
     16 H16        -16.0648  15.8601  30.7271 H              1 <1>                0.0000
     17 H17        -17.3229  13.8023  30.1181 H              1 <1>                0.0000
     18 H18        -17.8700  13.3267  27.7668 H              1 <1>                0.0000
     19 H19        -17.0415  15.6449  24.9558 H              1 <1>                0.0000
     20 H20        -17.6186  13.6052  24.0593 H              1 <1>                0.0000
     21 H21        -17.0300  12.8357  25.5189 H              1 <1>                0.0000
     22 H22        -19.8600  15.1973  26.6086 H              1 <1>                0.0000
     23 H23        -22.0998  13.6505  26.8473 H              1 <1>                0.0000
     24 H24        -21.5173  11.4411  25.7463 H              1 <1>                0.0000
     25 ****       -19.1967  11.3736  24.8365 LP             1 <1>                0.0000
@<TRIPOS>BOND
    1    1    2 1     
    2    2    7 ar    
    3    2    3 ar    
    4    3    4 ar    
    5    3   15 1     
    6    4    5 ar    
    7    4   16 1     
    8    5    6 ar    
    9    5   17 1     
   10    6    7 ar    
   11    6   18 1     
   12    7    8 1     
   13    8    9 1     
   14    8   19 1     
   15    9   10 1     
   16    9   20 1     
   17    9   21 1     
   18   10   14 2     
   19   10   11 1     
   20   11   12 2     
   21   11   22 1     
   22   12   13 1     
   23   12   23 1     
   24   13   14 1     
   25   13   24 1     
   26   14   25 1     
@<TRIPOS>SUBSTRUCTURE
      1 ****           1
@<TRIPOS>SET
LONE_PAIRS      STATIC     ATOMS    <user>   **** ""
1 25
DONOR_HYDROGENS      STATIC     ATOMS    <user>   **** ""
2 19 24
ATOM$BLUE        STATIC     ATOMS    COLORGROUP SYSTEM
1 25
ATOM$RED        STATIC     ATOMS    COLORGROUP SYSTEM
2 19 24
@<TRIPOS>COMMENT
> <Gold.Version>
5.7.1

> <Gold.Id.Protein>
5ENC|5ENC_protein|mol2

> <Gold.Protein.RotatedTorsions>
[ 1501  701  700  697 ] final  -56.17 input   60.00 | X-H torsion
[ 1497  695  694  692 ] final  164.56 input   60.00 | X-H torsion
[ 1251  358  357  355 ] final   -6.53 input   60.00 | X-H torsion
[ 1470  669  668  665 ] final  129.51 input   60.00 | X-H torsion

> <Gold.Protein.ActiveResidues>
 PRO28   PHE29   GLN31   PRO32   VAL33   TYR38   TYR41   PRO48   MET49   ASP50  
 ILE76   ASN79   SER80   TYR83   THR84   ILE91  

> <Gold.Protein.RotatedAtoms>
  -16.3785    9.4723   24.7101 H   0  0  0  0  0  0  0  0  0  0  0  0  # atno 1251 bound_to 358 
  -21.5079   11.9998   21.9572 H   0  0  0  0  0  0  0  0  0  0  0  0  # atno 1470 bound_to 669 
  -19.2216   10.7956   32.2050 H   0  0  0  0  0  0  0  0  0  0  0  0  # atno 1497 bound_to 695 
  -23.2169   10.6204   27.3314 H   0  0  0  0  0  0  0  0  0  0  0  0  # atno 1501 bound_to 701 
  -22.8909   11.7006   26.1589 LP  0  0  0  0  0  0  0  0  0  0  0  0  # atno 2046 bound_to 701 
  -22.1432   10.2488   26.1664 LP  0  0  0  0  0  0  0  0  0  0  0  0  # atno 2047 bound_to 701 
  -18.1705    9.5779   32.4509 LP  0  0  0  0  0  0  0  0  0  0  0  0  # atno 2052 bound_to 695 
  -19.7647    9.3516   32.7227 LP  0  0  0  0  0  0  0  0  0  0  0  0  # atno 2053 bound_to 695 
  -15.0572    8.5652   24.4283 LP  0  0  0  0  0  0  0  0  0  0  0  0  # atno 2056 bound_to 358 
  -14.9449   10.1942   24.4429 LP  0  0  0  0  0  0  0  0  0  0  0  0  # atno 2057 bound_to 358 

> <Gold.Protein.RotatedWaterAtoms>
  -17.7040   10.2320   24.0390 O.3 0  0  0  0  0  0  0  0  0  0  0  0  # atno 1    bound_to 2    3    AM1 ON 
  -17.6587   10.4768   23.0777 H   0  0  0  0  0  0  0  0  0  0  0  0  # atno 2    bound_to 1    AM1 ON 
  -18.4680   10.7025   24.4648 H   0  0  0  0  0  0  0  0  0  0  0  0  # atno 3    bound_to 1    AM1 ON 
  -16.8535   10.4998   24.4916 LP  0  0  0  0  0  0  0  0  0  0  0  0  # atno 4    bound_to 1    AM1 ON 
  -17.8309    9.2439   24.1257 LP  0  0  0  0  0  0  0  0  0  0  0  0  # atno 5    bound_to 1    AM1 ON 
  -13.7450   10.2720   23.0540 O.3 0  0  0  0  0  0  0  0  0  0  0  0  # atno 1    bound_to 2    3    AM2 ON 
  -14.2568    9.7024   23.6862 H   0  0  0  0  0  0  0  0  0  0  0  0  # atno 2    bound_to 1    AM2 ON 
  -14.2852   11.0708   22.8164 H   0  0  0  0  0  0  0  0  0  0  0  0  # atno 3    bound_to 1    AM2 ON 
  -13.5399    9.7500   22.2261 LP  0  0  0  0  0  0  0  0  0  0  0  0  # atno 4    bound_to 1    AM2 ON 
  -12.8907   10.5633   23.4845 LP  0  0  0  0  0  0  0  0  0  0  0  0  # atno 5    bound_to 1    AM2 ON 
  -21.1690   11.6250   24.3940 O.3 0  0  0  0  0  0  0  0  0  0  0  0  # atno 1    bound_to 2    3    AM3 OFF
  -21.4692   11.9252   23.4963 H   0  0  0  0  0  0  0  0  0  0  0  0  # atno 2    bound_to 1    AM3 OFF
  -20.2046   11.8334   24.5073 H   0  0  0  0  0  0  0  0  0  0  0  0  # atno 3    bound_to 1    AM3 OFF
  -21.3092   10.6386   24.4798 LP  0  0  0  0  0  0  0  0  0  0  0  0  # atno 4    bound_to 1    AM3 OFF
  -21.6975   12.0993   25.0981 LP  0  0  0  0  0  0  0  0  0  0  0  0  # atno 5    bound_to 1    AM3 OFF
  -14.6550   15.1580   23.4130 O.3 0  0  0  0  0  0  0  0  0  0  0  0  # atno 1    bound_to 2    3    AM4 ON 
  -13.8279   15.6901   23.5500 H   0  0  0  0  0  0  0  0  0  0  0  0  # atno 2    bound_to 1    AM4 ON 
  -15.4479   15.7205   23.6161 H   0  0  0  0  0  0  0  0  0  0  0  0  # atno 3    bound_to 1    AM4 ON 
  -14.6451   14.3640   24.0208 LP  0  0  0  0  0  0  0  0  0  0  0  0  # atno 4    bound_to 1    AM4 ON 
  -14.6996   14.8498   22.4627 LP  0  0  0  0  0  0  0  0  0  0  0  0  # atno 5    bound_to 1    AM4 ON 
  -23.6820   12.7820   28.0340 O.3 0  0  0  0  0  0  0  0  0  0  0  0  # atno 1    bound_to 2    3    AM5 OFF
  -23.9647   11.8500   28.2277 H   0  0  0  0  0  0  0  0  0  0  0  0  # atno 2    bound_to 1    AM5 OFF
  -24.4273   13.4042   28.2430 H   0  0  0  0  0  0  0  0  0  0  0  0  # atno 3    bound_to 1    AM5 OFF
  -23.4413   12.8631   27.0668 LP  0  0  0  0  0  0  0  0  0  0  0  0  # atno 4    bound_to 1    AM5 OFF
  -22.8875   13.0129   28.5957 LP  0  0  0  0  0  0  0  0  0  0  0  0  # atno 5    bound_to 1    AM5 OFF
  -16.9520   11.2350   21.5950 O.3 0  0  0  0  0  0  0  0  0  0  0  0  # atno 1    bound_to 2    3    AM6 ON 
  -16.9969   10.8313   20.6889 H   0  0  0  0  0  0  0  0  0  0  0  0  # atno 2    bound_to 1    AM6 ON 
  -16.3567   12.0297   21.5742 H   0  0  0  0  0  0  0  0  0  0  0  0  # atno 3    bound_to 1    AM6 ON 
  -16.5894   10.5637   22.2414 LP  0  0  0  0  0  0  0  0  0  0  0  0  # atno 4    bound_to 1    AM6 ON 
  -17.8688   11.5127   21.8820 LP  0  0  0  0  0  0  0  0  0  0  0  0  # atno 5    bound_to 1    AM6 ON 
  -14.9200   12.9840   21.7870 O.3 0  0  0  0  0  0  0  0  0  0  0  0  # atno 1    bound_to 2    3    AM7 ON 
  -14.7681   13.6476   22.5099 H   0  0  0  0  0  0  0  0  0  0  0  0  # atno 2    bound_to 1    AM7 ON 
  -14.0473   12.7108   21.3997 H   0  0  0  0  0  0  0  0  0  0  0  0  # atno 3    bound_to 1    AM7 ON 
  -15.4882   13.3931   21.0730 LP  0  0  0  0  0  0  0  0  0  0  0  0  # atno 4    bound_to 1    AM7 ON 
  -15.3836   12.1817   22.1630 LP  0  0  0  0  0  0  0  0  0  0  0  0  # atno 5    bound_to 1    AM7 ON 

> <Gold.Score>
     Score         DG    S(hbond)    S(metal)    S(lipo)     H(rot)  DE(clash)    DE(int)    S(bar)      intcor
     47.45     -47.78      12.44        0.00     119.55       1.27       0.22       0.12      10.00       0.00

> <Gold.Chemscore.Fitness>
47.4465

> <Gold.Chemscore.DG>
-47.7814

> <Gold.Chemscore.ZeroCoef>
-5.4800

> <Gold.Chemscore.Hbond>
12.4419

> <Gold.Chemscore.Metal>
0.0000

> <Gold.Chemscore.Lipo>
119.5529

> <Gold.Chemscore.Internal_Hbond>
0.0000

> <Gold.Chemscore.DEClash>
0.2166

> <Gold.Chemscore.DEInternal>
0.1184

> <Gold.Chemscore.Rot>
1.2665

> <Gold.Chemscore.Internal.Correction>
0.0002

> <Gold.Chemscore.SBar>
10.0000

> <Gold.Chemscore.Hbonds>
donor molecule, donor type, donor heavy atom, donor atom, acceptor molecule, acceptor atom, score
      L1  H     8    19       P1   238  0.98
      L1  H    13    24       P1   701  0.89
     AM1  H     1     2      AM6     1  0.98
     AM1  H     1     3       L1    14  0.96
     AM2  H     1     2       P1   358  0.95
     AM4  H     1     2       P1   267  1.00
     AM4  H     1     3       P1   238  1.00
     AM6  H     1     2       P1   634  0.99
     AM6  H     1     3      AM7     1  0.98
     AM7  H     1     2      AM4     1  0.99
     AM7  H     1     3       P1   419  1.00
      P1  H   358  1251      AM1     1  0.90
      P1  H   416  1258      AM2     1  0.82

> <Gold.Chemscore.Hbond.Weighted>
-41.5559

> <Gold.Chemscore.Metal.Weighted>
-0.0000

> <Gold.Chemscore.Lipo.Weighted>
-13.9877

> <Gold.Chemscore.Internal_Hbond.Weighted>
0.0000

> <Gold.Chemscore.DEClash.Weighted>
0.2166

> <Gold.Chemscore.DEInternal.Weighted>
0.1184

> <Gold.Chemscore.Rot.Weighted>
3.2422

> <Gold.Chemscore.Internal.Correction.Weighted>
0.0002

