#       Name:                F366-5AEDE82BCC694BC3-5AEDE82BCC694BC3-NMX
#       Creating user name   iorga
#       Creation time:       Wed Nov 27 15:55:26 2019


#       File generated by GOLD software.
#

@<TRIPOS>MOLECULE
F366-5AEDE82BCC694BC3-5AEDE82BCC694BC3-NMX|ligands_smiles_3D-hash|mol2|378|dock3
    25    25     1
SMALL
NO_CHARGES


@<TRIPOS>ATOM
      1 C1         -20.0601  14.6226  24.6837 C.3            1 <1>                0.0000
      2 C2         -18.5797  14.3677  24.9912 C.3            1 <1>                0.0000
      3 N3         -18.4112  13.5032  26.1430 N.pl3          1 <1>                0.0000
      4 C4         -17.8977  13.8173  27.3831 C.2            1 <1>                0.0000
      5 C5         -17.9383  12.6830  28.1440 C.2            1 <1>                0.0000
      6 C6         -17.4945  12.4878  29.5670 C.3            1 <1>                0.0000
      7 C7         -18.3923  13.2552  30.5465 C.3            1 <1>                0.0000
      8 O8         -18.3802  12.6214  31.8074 O.3            1 <1>                0.0000
      9 C9         -18.5038  11.7159  27.2649 C.2            1 <1>                0.0000
     10 N10        -18.7843  12.2082  26.0695 N.2            1 <1>                0.0000
     11 H11        -20.1686  15.2831  23.8235 H              1 <1>                0.0000
     12 H12        -20.5824  13.6927  24.4569 H              1 <1>                0.0000
     13 H13        -20.5625  15.0919  25.5298 H              1 <1>                0.0000
     14 H14        -18.0684  15.3110  25.1852 H              1 <1>                0.0000
     15 H15        -18.0862  13.9103  24.1328 H              1 <1>                0.0000
     16 H16        -17.5495  14.8119  27.6194 H              1 <1>                0.0000
     17 H17        -17.4994  11.4284  29.8271 H              1 <1>                0.0000
     18 H18        -16.4625  12.8182  29.6905 H              1 <1>                0.0000
     19 H19        -18.0450  14.2822  30.6635 H              1 <1>                0.0000
     20 H20        -19.4183  13.2965  30.1790 H              1 <1>                0.0000
     21 H21        -18.2776  13.2822  32.4751 H              1 <1>                0.0000
     22 H22        -18.7150  10.6747  27.4596 H              1 <1>                0.0000
     23 ****       -17.6182  11.9754  31.8527 LP             1 <1>                0.0000
     24 ****       -19.2410  12.1319  31.9470 LP             1 <1>                0.0000
     25 ****       -19.1829  11.7288  25.2877 LP             1 <1>                0.0000
@<TRIPOS>BOND
    1    1    2 1     
    2    1   11 1     
    3    1   12 1     
    4    1   13 1     
    5    2    3 1     
    6    2   14 1     
    7    2   15 1     
    8    3   10 1     
    9    3    4 1     
   10    4    5 2     
   11    4   16 1     
   12    5    6 1     
   13    5    9 1     
   14    6    7 1     
   15    6   17 1     
   16    6   18 1     
   17    7    8 1     
   18    7   19 1     
   19    7   20 1     
   20    8   21 1     
   21    9   10 2     
   22    9   22 1     
   23    8   23 1     
   24    8   24 1     
   25   10   25 1     
@<TRIPOS>SUBSTRUCTURE
      1 ****           1
@<TRIPOS>SET
LONE_PAIRS      STATIC     ATOMS    <user>   **** ""
3 23 24 25
DONOR_HYDROGENS      STATIC     ATOMS    <user>   **** ""
1 21
ATOM$BLUE        STATIC     ATOMS    COLORGROUP SYSTEM
3 23 24 25
ATOM$RED        STATIC     ATOMS    COLORGROUP SYSTEM
1 21
@<TRIPOS>COMMENT
> <Gold.Version>
5.7.1

> <Gold.Id.Protein>
5ENC|5ENC_protein|mol2

> <Gold.Protein.RotatedTorsions>
[ 1501  701  700  697 ] final   38.17 input   60.00 | X-H torsion
[ 1497  695  694  692 ] final  128.31 input   60.00 | X-H torsion
[ 1251  358  357  355 ] final   -2.12 input   60.00 | X-H torsion
[ 1470  669  668  665 ] final   65.41 input   60.00 | X-H torsion

> <Gold.Protein.ActiveResidues>
 PRO28   PHE29   GLN31   PRO32   VAL33   TYR38   TYR41   PRO48   MET49   ASP50  
 ILE76   ASN79   SER80   TYR83   THR84   ILE91  

> <Gold.Protein.RotatedAtoms>
  -16.3709    9.5439   24.7102 H   0  0  0  0  0  0  0  0  0  0  0  0  # atno 1251 bound_to 358 
  -21.4805   11.4184   22.7626 H   0  0  0  0  0  0  0  0  0  0  0  0  # atno 1470 bound_to 669 
  -18.6486   10.7009   32.1617 H   0  0  0  0  0  0  0  0  0  0  0  0  # atno 1497 bound_to 695 
  -22.2901   10.0433   26.4987 H   0  0  0  0  0  0  0  0  0  0  0  0  # atno 1501 bound_to 701 
  -23.3593   11.0060   27.2590 LP  0  0  0  0  0  0  0  0  0  0  0  0  # atno 2046 bound_to 701 
  -22.6082   11.5246   25.9049 LP  0  0  0  0  0  0  0  0  0  0  0  0  # atno 2047 bound_to 701 
  -18.5263    9.1470   32.6291 LP  0  0  0  0  0  0  0  0  0  0  0  0  # atno 2052 bound_to 695 
  -19.9860    9.8778   32.5880 LP  0  0  0  0  0  0  0  0  0  0  0  0  # atno 2053 bound_to 695 
  -15.1224    8.5357   24.4405 LP  0  0  0  0  0  0  0  0  0  0  0  0  # atno 2056 bound_to 358 
  -14.8874   10.1516   24.4306 LP  0  0  0  0  0  0  0  0  0  0  0  0  # atno 2057 bound_to 358 

> <Gold.Protein.RotatedWaterAtoms>
  -17.7040   10.2320   24.0390 O.3 0  0  0  0  0  0  0  0  0  0  0  0  # atno 1    bound_to 2    3    AM1 ON 
  -17.7057   10.3930   23.0591 H   0  0  0  0  0  0  0  0  0  0  0  0  # atno 2    bound_to 1    AM1 ON 
  -18.1871   10.9694   24.4964 H   0  0  0  0  0  0  0  0  0  0  0  0  # atno 3    bound_to 1    AM1 ON 
  -16.7608   10.1961   24.3693 LP  0  0  0  0  0  0  0  0  0  0  0  0  # atno 4    bound_to 1    AM1 ON 
  -18.1590    9.3633   24.2349 LP  0  0  0  0  0  0  0  0  0  0  0  0  # atno 5    bound_to 1    AM1 ON 
  -13.7450   10.2720   23.0540 O.3 0  0  0  0  0  0  0  0  0  0  0  0  # atno 1    bound_to 2    3    AM2 ON 
  -14.1334    9.9290   23.9011 H   0  0  0  0  0  0  0  0  0  0  0  0  # atno 2    bound_to 1    AM2 ON 
  -14.3033   11.0190   22.7125 H   0  0  0  0  0  0  0  0  0  0  0  0  # atno 3    bound_to 1    AM2 ON 
  -13.7212    9.5369   22.3765 LP  0  0  0  0  0  0  0  0  0  0  0  0  # atno 4    bound_to 1    AM2 ON 
  -12.8156   10.6003   23.2223 LP  0  0  0  0  0  0  0  0  0  0  0  0  # atno 5    bound_to 1    AM2 ON 
  -21.1690   11.6250   24.3940 O.3 0  0  0  0  0  0  0  0  0  0  0  0  # atno 1    bound_to 2    3    AM3 ON 
  -20.2900   11.6788   24.8528 H   0  0  0  0  0  0  0  0  0  0  0  0  # atno 2    bound_to 1    AM3 ON 
  -21.8911   11.5427   25.0708 H   0  0  0  0  0  0  0  0  0  0  0  0  # atno 3    bound_to 1    AM3 ON 
  -21.1829   10.8260   23.7929 LP  0  0  0  0  0  0  0  0  0  0  0  0  # atno 4    bound_to 1    AM3 ON 
  -21.3132   12.4527   23.8517 LP  0  0  0  0  0  0  0  0  0  0  0  0  # atno 5    bound_to 1    AM3 ON 
  -14.6550   15.1580   23.4130 O.3 0  0  0  0  0  0  0  0  0  0  0  0  # atno 1    bound_to 2    3    AM4 ON 
  -13.8204   15.5914   23.7319 H   0  0  0  0  0  0  0  0  0  0  0  0  # atno 2    bound_to 1    AM4 ON 
  -15.4355   15.7193   23.6622 H   0  0  0  0  0  0  0  0  0  0  0  0  # atno 3    bound_to 1    AM4 ON 
  -14.7446   14.2560   23.8354 LP  0  0  0  0  0  0  0  0  0  0  0  0  # atno 4    bound_to 1    AM4 ON 
  -14.6200   15.0584   22.4186 LP  0  0  0  0  0  0  0  0  0  0  0  0  # atno 5    bound_to 1    AM4 ON 
  -23.6820   12.7820   28.0340 O.3 0  0  0  0  0  0  0  0  0  0  0  0  # atno 1    bound_to 2    3    AM5 ON 
  -23.2522   12.1341   27.4163 H   0  0  0  0  0  0  0  0  0  0  0  0  # atno 2    bound_to 1    AM5 ON 
  -24.6642   12.7779   27.8871 H   0  0  0  0  0  0  0  0  0  0  0  0  # atno 3    bound_to 1    AM5 ON 
  -23.3226   13.6986   27.8587 LP  0  0  0  0  0  0  0  0  0  0  0  0  # atno 4    bound_to 1    AM5 ON 
  -23.4853   12.5220   28.9794 LP  0  0  0  0  0  0  0  0  0  0  0  0  # atno 5    bound_to 1    AM5 ON 
  -16.9520   11.2350   21.5950 O.3 0  0  0  0  0  0  0  0  0  0  0  0  # atno 1    bound_to 2    3    AM6 ON 
  -16.8761   10.8324   20.6904 H   0  0  0  0  0  0  0  0  0  0  0  0  # atno 2    bound_to 1    AM6 ON 
  -16.2506   11.9289   21.7084 H   0  0  0  0  0  0  0  0  0  0  0  0  # atno 3    bound_to 1    AM6 ON 
  -16.8322   10.5236   22.2876 LP  0  0  0  0  0  0  0  0  0  0  0  0  # atno 4    bound_to 1    AM6 ON 
  -17.8544   11.6531   21.6992 LP  0  0  0  0  0  0  0  0  0  0  0  0  # atno 5    bound_to 1    AM6 ON 
  -14.9200   12.9840   21.7870 O.3 0  0  0  0  0  0  0  0  0  0  0  0  # atno 1    bound_to 2    3    AM7 ON 
  -14.7733   13.6985   22.4608 H   0  0  0  0  0  0  0  0  0  0  0  0  # atno 2    bound_to 1    AM7 ON 
  -14.0624   12.7785   21.3303 H   0  0  0  0  0  0  0  0  0  0  0  0  # atno 3    bound_to 1    AM7 ON 
  -15.5906   13.2939   21.1131 LP  0  0  0  0  0  0  0  0  0  0  0  0  # atno 4    bound_to 1    AM7 ON 
  -15.2607   12.1614   22.2423 LP  0  0  0  0  0  0  0  0  0  0  0  0  # atno 5    bound_to 1    AM7 ON 

> <Gold.Score>
     Score         DG    S(hbond)    S(metal)    S(lipo)     H(rot)  DE(clash)    DE(int)    S(bar)      intcor
     44.91     -46.53      14.12        0.00     108.01       1.85       1.34       0.28      14.00       0.00

> <Gold.Chemscore.Fitness>
44.9096

> <Gold.Chemscore.DG>
-46.5285

> <Gold.Chemscore.ZeroCoef>
-5.4800

> <Gold.Chemscore.Hbond>
14.1189

> <Gold.Chemscore.Metal>
0.0000

> <Gold.Chemscore.Lipo>
108.0116

> <Gold.Chemscore.Internal_Hbond>
0.0000

> <Gold.Chemscore.DEClash>
1.3396

> <Gold.Chemscore.DEInternal>
0.2793

> <Gold.Chemscore.Rot>
1.8539

> <Gold.Chemscore.Internal.Correction>
0.0002

> <Gold.Chemscore.SBar>
14.0000

> <Gold.Chemscore.Hbonds>
donor molecule, donor type, donor heavy atom, donor atom, acceptor molecule, acceptor atom, score
     AM1  H     1     2      AM6     1  0.92
     AM1  H     1     3       L1    10  0.82
     AM2  H     1     2       P1   358  0.87
     AM3  H     1     2       L1    10  0.97
     AM4  H     1     2       P1   267  0.98
     AM4  H     1     3       P1   238  0.99
     AM5  H     1     2       P1   701  0.98
     AM6  H     1     2       P1   634  0.95
     AM6  H     1     3      AM7     1  0.98
     AM7  H     1     2      AM4     1  0.99
     AM7  H     1     3       P1   419  0.99
      P1  H   695  1497       L1     8  0.99
      P1  H   358  1251      AM1     1  0.90
      P1  H   416  1258      AM2     1  0.76
      P1  H   669  1470      AM3     1  0.97
      P1  H   663  1465      AM2     1  0.06

> <Gold.Chemscore.Hbond.Weighted>
-47.1572

> <Gold.Chemscore.Metal.Weighted>
-0.0000

> <Gold.Chemscore.Lipo.Weighted>
-12.6374

> <Gold.Chemscore.Internal_Hbond.Weighted>
0.0000

> <Gold.Chemscore.DEClash.Weighted>
1.3396

> <Gold.Chemscore.DEInternal.Weighted>
0.2793

> <Gold.Chemscore.Rot.Weighted>
4.7461

> <Gold.Chemscore.Internal.Correction.Weighted>
0.0002

