#       Name:                F584-7245F722AABD0A41-7245F722AABD0A41-NMX
#       Creating user name   iorga
#       Creation time:       Wed Nov 27 13:29:13 2019


#       File generated by GOLD software.
#

@<TRIPOS>MOLECULE
F584-7245F722AABD0A41-7245F722AABD0A41-NMX|ligands_smiles_3D-hash|mol2|599|dock3
    31    32     1
SMALL
NO_CHARGES


@<TRIPOS>ATOM
      1 C1         -15.4699  16.8344  27.6063 C.3            1 <1>                0.0000
      2 O2         -16.2767  15.9991  26.7884 O.3            1 <1>                0.0000
      3 C3         -16.9161  14.9232  27.3709 C.ar           1 <1>                0.0000
      4 C4         -16.8002  14.6093  28.7494 C.ar           1 <1>                0.0000
      5 C5         -17.4598  13.4917  29.2904 C.ar           1 <1>                0.0000
      6 C6         -18.2604  12.6809  28.4698 C.ar           1 <1>                0.0000
      7 C7         -18.4130  12.9905  27.1053 C.ar           1 <1>                0.0000
      8 N8         -19.2513  12.1464  26.3302 N.am           1 <1>                0.0000
      9 C9         -20.1552  12.5520  25.4205 C.2            1 <1>                0.0000
     10 O10        -20.8198  11.7509  24.7669 O.2            1 <1>                0.0000
     11 C11        -20.3832  14.0583  25.2415 C.3            1 <1>                0.0000
     12 C12        -19.2061  14.7749  24.5530 C.3            1 <1>                0.0000
     13 C13        -17.8042  14.3593  25.0394 C.3            1 <1>                0.0000
     14 C14        -17.7188  14.0966  26.5428 C.ar           1 <1>                0.0000
     15 H15        -15.0389  17.6269  26.9948 H              1 <1>                0.0000
     16 H16        -16.0567  17.3090  28.3939 H              1 <1>                0.0000
     17 H17        -14.6444  16.2790  28.0534 H              1 <1>                0.0000
     18 H18        -16.1997  15.2074  29.4176 H              1 <1>                0.0000
     19 H19        -17.3545  13.2588  30.3398 H              1 <1>                0.0000
     20 H20        -18.7717  11.8300  28.8964 H              1 <1>                0.0000
     21 H21        -19.2260  11.1603  26.5459 H              1 <1>                0.0000
     22 H22        -20.5657  14.4993  26.2224 H              1 <1>                0.0000
     23 H23        -21.2977  14.2234  24.6704 H              1 <1>                0.0000
     24 H24        -19.2667  14.6492  23.4713 H              1 <1>                0.0000
     25 H25        -19.3271  15.8435  24.7330 H              1 <1>                0.0000
     26 H26        -17.5080  13.4393  24.5339 H              1 <1>                0.0000
     27 H27        -17.0749  15.0999  24.7135 H              1 <1>                0.0000
     28 ****       -15.6880  15.6365  26.0660 LP             1 <1>                0.0000
     29 ****       -16.9840  16.5781  26.3828 LP             1 <1>                0.0000
     30 ****       -20.6955  10.7682  24.9047 LP             1 <1>                0.0000
     31 ****       -21.4847  12.0817  24.0973 LP             1 <1>                0.0000
@<TRIPOS>BOND
    1    1    2 1     
    2    1   15 1     
    3    1   16 1     
    4    1   17 1     
    5    2    3 1     
    6    3   14 ar    
    7    3    4 ar    
    8    4    5 ar    
    9    4   18 1     
   10    5    6 ar    
   11    5   19 1     
   12    6    7 ar    
   13    6   20 1     
   14    7   14 ar    
   15    7    8 1     
   16    8    9 am    
   17    8   21 1     
   18    9   10 2     
   19    9   11 1     
   20   11   12 1     
   21   11   22 1     
   22   11   23 1     
   23   12   13 1     
   24   12   24 1     
   25   12   25 1     
   26   13   14 1     
   27   13   26 1     
   28   13   27 1     
   29    2   28 1     
   30    2   29 1     
   31   10   30 1     
   32   10   31 1     
@<TRIPOS>SUBSTRUCTURE
      1 ****           1
@<TRIPOS>SET
LONE_PAIRS      STATIC     ATOMS    <user>   **** ""
4 28 29 30 31
DONOR_HYDROGENS      STATIC     ATOMS    <user>   **** ""
1 21
ATOM$BLUE        STATIC     ATOMS    COLORGROUP SYSTEM
4 28 29 30 31
ATOM$RED        STATIC     ATOMS    COLORGROUP SYSTEM
1 21
@<TRIPOS>COMMENT
> <Gold.Version>
5.7.1

> <Gold.Id.Protein>
5ENC|5ENC_protein|mol2

> <Gold.Protein.RotatedTorsions>
[ 1501  701  700  697 ] final  107.37 input   60.00 | X-H torsion
[ 1497  695  694  692 ] final   22.83 input   60.00 | X-H torsion
[ 1251  358  357  355 ] final   -1.95 input   60.00 | X-H torsion
[ 1470  669  668  665 ] final   63.19 input   60.00 | X-H torsion

> <Gold.Protein.ActiveResidues>
 PRO28   PHE29   GLN31   PRO32   VAL33   TYR38   TYR41   PRO48   MET49   ASP50  
 ILE76   ASN79   SER80   TYR83   THR84   ILE91  

> <Gold.Protein.RotatedAtoms>
  -16.3705    9.5467   24.7102 H   0  0  0  0  0  0  0  0  0  0  0  0  # atno 1251 bound_to 358 
  -21.4924   11.3881   22.7786 H   0  0  0  0  0  0  0  0  0  0  0  0  # atno 1470 bound_to 669 
  -18.3543    9.2951   32.5592 H   0  0  0  0  0  0  0  0  0  0  0  0  # atno 1497 bound_to 695 
  -22.1858   10.8450   25.8081 H   0  0  0  0  0  0  0  0  0  0  0  0  # atno 1501 bound_to 701 
  -22.7925   10.1074   27.1256 LP  0  0  0  0  0  0  0  0  0  0  0  0  # atno 2046 bound_to 701 
  -23.2800   11.6158   26.7337 LP  0  0  0  0  0  0  0  0  0  0  0  0  # atno 2047 bound_to 701 
  -19.9390    9.6531   32.6515 LP  0  0  0  0  0  0  0  0  0  0  0  0  # atno 2052 bound_to 695 
  -18.8697   10.7875   32.1654 LP  0  0  0  0  0  0  0  0  0  0  0  0  # atno 2053 bound_to 695 
  -15.1250    8.5346   24.4409 LP  0  0  0  0  0  0  0  0  0  0  0  0  # atno 2056 bound_to 358 
  -14.8853   10.1499   24.4302 LP  0  0  0  0  0  0  0  0  0  0  0  0  # atno 2057 bound_to 358 

> <Gold.Protein.RotatedWaterAtoms>
  -17.7040   10.2320   24.0390 O.3 0  0  0  0  0  0  0  0  0  0  0  0  # atno 1    bound_to 2    3    AM1 ON 
  -17.7223   10.6128   23.1221 H   0  0  0  0  0  0  0  0  0  0  0  0  # atno 2    bound_to 1    AM1 ON 
  -18.6274   10.2018   24.4033 H   0  0  0  0  0  0  0  0  0  0  0  0  # atno 3    bound_to 1    AM1 ON 
  -17.1324   10.8048   24.6265 LP  0  0  0  0  0  0  0  0  0  0  0  0  # atno 4    bound_to 1    AM1 ON 
  -17.3274    9.3062   24.0080 LP  0  0  0  0  0  0  0  0  0  0  0  0  # atno 5    bound_to 1    AM1 ON 
  -13.7450   10.2720   23.0540 O.3 0  0  0  0  0  0  0  0  0  0  0  0  # atno 1    bound_to 2    3    AM2 ON 
  -14.3928   10.9238   22.6777 H   0  0  0  0  0  0  0  0  0  0  0  0  # atno 2    bound_to 1    AM2 ON 
  -14.1536    9.8116   23.8334 H   0  0  0  0  0  0  0  0  0  0  0  0  # atno 3    bound_to 1    AM2 ON 
  -12.9192   10.7540   23.3468 LP  0  0  0  0  0  0  0  0  0  0  0  0  # atno 4    bound_to 1    AM2 ON 
  -13.5071    9.5972   22.3554 LP  0  0  0  0  0  0  0  0  0  0  0  0  # atno 5    bound_to 1    AM2 ON 
  -21.1690   11.6250   24.3940 O.3 0  0  0  0  0  0  0  0  0  0  0  0  # atno 1    bound_to 2    3    AM3 OFF
  -21.3962   11.5437   25.3572 H   0  0  0  0  0  0  0  0  0  0  0  0  # atno 2    bound_to 1    AM3 OFF
  -21.0949   12.5852   24.1513 H   0  0  0  0  0  0  0  0  0  0  0  0  # atno 3    bound_to 1    AM3 OFF
  -21.8867   11.1968   23.8449 LP  0  0  0  0  0  0  0  0  0  0  0  0  # atno 4    bound_to 1    AM3 OFF
  -20.2971   11.1683   24.2175 LP  0  0  0  0  0  0  0  0  0  0  0  0  # atno 5    bound_to 1    AM3 OFF
  -14.6550   15.1580   23.4130 O.3 0  0  0  0  0  0  0  0  0  0  0  0  # atno 1    bound_to 2    3    AM4 ON 
  -13.7865   15.6016   23.6003 H   0  0  0  0  0  0  0  0  0  0  0  0  # atno 2    bound_to 1    AM4 ON 
  -15.3964   15.7962   23.5844 H   0  0  0  0  0  0  0  0  0  0  0  0  # atno 3    bound_to 1    AM4 ON 
  -14.7572   14.3607   24.0078 LP  0  0  0  0  0  0  0  0  0  0  0  0  # atno 4    bound_to 1    AM4 ON 
  -14.6808   14.8661   22.4569 LP  0  0  0  0  0  0  0  0  0  0  0  0  # atno 5    bound_to 1    AM4 ON 
  -23.6820   12.7820   28.0340 O.3 0  0  0  0  0  0  0  0  0  0  0  0  # atno 1    bound_to 2    3    AM5 ON 
  -23.3926   11.9356   27.6029 H   0  0  0  0  0  0  0  0  0  0  0  0  # atno 2    bound_to 1    AM5 ON 
  -23.1081   13.5280   27.7171 H   0  0  0  0  0  0  0  0  0  0  0  0  # atno 3    bound_to 1    AM5 ON 
  -23.5987   12.6959   29.0268 LP  0  0  0  0  0  0  0  0  0  0  0  0  # atno 4    bound_to 1    AM5 ON 
  -24.6346   12.9693   27.7944 LP  0  0  0  0  0  0  0  0  0  0  0  0  # atno 5    bound_to 1    AM5 ON 
  -16.9520   11.2350   21.5950 O.3 0  0  0  0  0  0  0  0  0  0  0  0  # atno 1    bound_to 2    3    AM6 ON 
  -17.1386   10.9033   20.6778 H   0  0  0  0  0  0  0  0  0  0  0  0  # atno 2    bound_to 1    AM6 ON 
  -16.3431   12.0180   21.5463 H   0  0  0  0  0  0  0  0  0  0  0  0  # atno 3    bound_to 1    AM6 ON 
  -16.5198   10.5094   22.1304 LP  0  0  0  0  0  0  0  0  0  0  0  0  # atno 4    bound_to 1    AM6 ON 
  -17.8095   11.5062   22.0322 LP  0  0  0  0  0  0  0  0  0  0  0  0  # atno 5    bound_to 1    AM6 ON 
  -14.9200   12.9840   21.7870 O.3 0  0  0  0  0  0  0  0  0  0  0  0  # atno 1    bound_to 2    3    AM7 ON 
  -14.8154   13.6638   22.5032 H   0  0  0  0  0  0  0  0  0  0  0  0  # atno 2    bound_to 1    AM7 ON 
  -14.0279   12.7544   21.4158 H   0  0  0  0  0  0  0  0  0  0  0  0  # atno 3    bound_to 1    AM7 ON 
  -15.4990   13.3524   21.0596 LP  0  0  0  0  0  0  0  0  0  0  0  0  # atno 4    bound_to 1    AM7 ON 
  -15.3445   12.1622   22.1669 LP  0  0  0  0  0  0  0  0  0  0  0  0  # atno 5    bound_to 1    AM7 ON 

> <Gold.Score>
     Score         DG    S(hbond)    S(metal)    S(lipo)     H(rot)  DE(clash)    DE(int)    S(bar)      intcor
     47.06     -47.48      12.33        0.00     131.53       1.00       0.41       0.00      12.00       1.12

> <Gold.Chemscore.Fitness>
47.0649

> <Gold.Chemscore.DG>
-47.4760

> <Gold.Chemscore.ZeroCoef>
-5.4800

> <Gold.Chemscore.Hbond>
12.3253

> <Gold.Chemscore.Metal>
0.0000

> <Gold.Chemscore.Lipo>
131.5347

> <Gold.Chemscore.Internal_Hbond>
0.0000

> <Gold.Chemscore.DEClash>
0.4112

> <Gold.Chemscore.DEInternal>
0.0000

> <Gold.Chemscore.Rot>
1.0000

> <Gold.Chemscore.Internal.Correction>
1.1211

> <Gold.Chemscore.SBar>
12.0000

> <Gold.Chemscore.Hbonds>
donor molecule, donor type, donor heavy atom, donor atom, acceptor molecule, acceptor atom, score
     AM1  H     1     2      AM6     1  0.97
     AM2  H     1     3       P1   358  0.92
     AM4  H     1     2       P1   267  1.00
     AM4  H     1     3       P1   238  1.00
     AM5  H     1     2       P1   701  0.94
     AM6  H     1     2       P1   634  0.99
     AM6  H     1     3      AM7     1  0.99
     AM7  H     1     2      AM4     1  0.99
     AM7  H     1     3       P1   419  1.00
      P1  H   701  1501       L1    10  0.88
      P1  H   358  1251      AM1     1  0.95
      P1  H   416  1258      AM2     1  0.80
      P1  H   669  1470       L1    10  0.89
      P1  H   663  1465      AM2     1  0.01

> <Gold.Chemscore.Hbond.Weighted>
-41.1665

> <Gold.Chemscore.Metal.Weighted>
-0.0000

> <Gold.Chemscore.Lipo.Weighted>
-15.3896

> <Gold.Chemscore.Internal_Hbond.Weighted>
0.0000

> <Gold.Chemscore.DEClash.Weighted>
0.4112

> <Gold.Chemscore.DEInternal.Weighted>
0.0000

> <Gold.Chemscore.Rot.Weighted>
2.5600

> <Gold.Chemscore.Internal.Correction.Weighted>
1.1211

