#       Name:                F579-73C809FCB602D3D2-73C809FCB602D3D2-NMX
#       Creating user name   iorga
#       Creation time:       Wed Nov 27 13:04:35 2019


#       File generated by GOLD software.
#

@<TRIPOS>MOLECULE
F579-73C809FCB602D3D2-73C809FCB602D3D2-NMX|ligands_smiles_3D-hash|mol2|594|dock23
    34    36     1
SMALL
NO_CHARGES


@<TRIPOS>ATOM
      1 C1         -19.4809  13.6813  32.8849 C.3            1 <1>                0.0000
      2 O2         -18.9079  12.8647  31.8743 O.3            1 <1>                0.0000
      3 C3         -18.4258  13.4796  30.7389 C.ar           1 <1>                0.0000
      4 C4         -17.8637  12.6484  29.7492 C.ar           1 <1>                0.0000
      5 C5         -17.3484  13.1879  28.5545 C.ar           1 <1>                0.0000
      6 C6         -17.3779  14.5786  28.3098 C.ar           1 <1>                0.0000
      7 N7         -16.9071  15.2398  27.1790 N.2            1 <1>                0.0000
      8 C8         -17.1080  16.5598  27.3078 C.2            1 <1>                0.0000
      9 N9         -16.7286  17.5046  26.3166 N.am           1 <1>                0.0000
     10 C10        -16.0782  18.6736  26.4720 C.2            1 <1>                0.0000
     11 O11        -15.6845  19.1131  27.5537 O.2            1 <1>                0.0000
     12 C12        -15.8679  19.4070  25.1869 C.3            1 <1>                0.0000
     13 C13        -14.4451  19.5625  24.6886 C.3            1 <1>                0.0000
     14 C14        -15.1774  20.7546  25.2517 C.3            1 <1>                0.0000
     15 S15        -17.8783  17.0960  28.8033 S.3            1 <1>                0.0000
     16 C16        -17.9472  15.4117  29.3174 C.ar           1 <1>                0.0000
     17 C17        -18.4633  14.8771  30.5128 C.ar           1 <1>                0.0000
     18 H18        -19.8226  13.0506  33.7054 H              1 <1>                0.0000
     19 H19        -18.7516  14.3838  33.2905 H              1 <1>                0.0000
     20 H20        -20.3450  14.2322  32.5109 H              1 <1>                0.0000
     21 H21        -17.8276  11.5804  29.9071 H              1 <1>                0.0000
     22 H22        -16.9244  12.5273  27.8127 H              1 <1>                0.0000
     23 H23        -16.9839  17.2628  25.3703 H              1 <1>                0.0000
     24 H24        -16.6404  19.2910  24.4277 H              1 <1>                0.0000
     25 H25        -13.6354  19.1451  25.2849 H              1 <1>                0.0000
     26 H26        -14.2918  19.5189  23.6123 H              1 <1>                0.0000
     27 H27        -15.5194  21.5189  24.5570 H              1 <1>                0.0000
     28 H28        -14.8533  21.1280  26.2217 H              1 <1>                0.0000
     29 H29        -18.8820  15.5584  31.2379 H              1 <1>                0.0000
     30 ****       -19.6099  12.2142  31.5845 LP             1 <1>                0.0000
     31 ****       -18.1454  12.3689  32.2900 LP             1 <1>                0.0000
     32 ****       -16.4827  14.7972  26.3891 LP             1 <1>                0.0000
     33 ****       -15.8421  18.5919  28.3924 LP             1 <1>                0.0000
     34 ****       -15.2073  19.9911  27.5928 LP             1 <1>                0.0000
@<TRIPOS>BOND
    1    1    2 1     
    2    1   18 1     
    3    1   19 1     
    4    1   20 1     
    5    2    3 1     
    6    3   17 ar    
    7    3    4 ar    
    8    4    5 ar    
    9    4   21 1     
   10    5    6 ar    
   11    5   22 1     
   12    6   16 ar    
   13    6    7 1     
   14    7    8 2     
   15    8    9 1     
   16    8   15 1     
   17    9   10 am    
   18    9   23 1     
   19   10   11 2     
   20   10   12 1     
   21   12   14 1     
   22   12   13 1     
   23   12   24 1     
   24   13   14 1     
   25   13   25 1     
   26   13   26 1     
   27   14   27 1     
   28   14   28 1     
   29   15   16 1     
   30   16   17 ar    
   31   17   29 1     
   32    2   30 1     
   33    2   31 1     
   34    7   32 1     
   35   11   33 1     
   36   11   34 1     
@<TRIPOS>SUBSTRUCTURE
      1 ****           1
@<TRIPOS>SET
LONE_PAIRS      STATIC     ATOMS    <user>   **** ""
5 30 31 32 33 34
DONOR_HYDROGENS      STATIC     ATOMS    <user>   **** ""
1 23
ATOM$BLUE        STATIC     ATOMS    COLORGROUP SYSTEM
5 30 31 32 33 34
ATOM$RED        STATIC     ATOMS    COLORGROUP SYSTEM
1 23
@<TRIPOS>COMMENT
> <Gold.Version>
5.7.1

> <Gold.Id.Protein>
5ENC|5ENC_protein|mol2

> <Gold.Protein.RotatedTorsions>
[ 1501  701  700  697 ] final  -55.87 input   60.00 | X-H torsion
[ 1497  695  694  692 ] final  154.99 input   60.00 | X-H torsion
[ 1251  358  357  355 ] final   -1.46 input   60.00 | X-H torsion
[ 1470  669  668  665 ] final   51.86 input   60.00 | X-H torsion

> <Gold.Protein.ActiveResidues>
 PRO28   PHE29   GLN31   PRO32   VAL33   TYR38   TYR41   PRO48   MET49   ASP50  
 ILE76   ASN79   SER80   TYR83   THR84   ILE91  

> <Gold.Protein.RotatedAtoms>
  -16.3693    9.5546   24.7101 H   0  0  0  0  0  0  0  0  0  0  0  0  # atno 1251 bound_to 358 
  -21.5649   11.2305   22.8421 H   0  0  0  0  0  0  0  0  0  0  0  0  # atno 1470 bound_to 669 
  -19.0674   10.8048   32.1826 H   0  0  0  0  0  0  0  0  0  0  0  0  # atno 1497 bound_to 695 
  -23.2147   10.6161   27.3314 H   0  0  0  0  0  0  0  0  0  0  0  0  # atno 1501 bound_to 701 
  -22.8941   11.7017   26.1624 LP  0  0  0  0  0  0  0  0  0  0  0  0  # atno 2046 bound_to 701 
  -22.1423   10.2521   26.1629 LP  0  0  0  0  0  0  0  0  0  0  0  0  # atno 2047 bound_to 701 
  -18.2348    9.4433   32.5006 LP  0  0  0  0  0  0  0  0  0  0  0  0  # atno 2052 bound_to 695 
  -19.8557    9.4768   32.6955 LP  0  0  0  0  0  0  0  0  0  0  0  0  # atno 2053 bound_to 695 
  -15.1323    8.5317   24.4423 LP  0  0  0  0  0  0  0  0  0  0  0  0  # atno 2056 bound_to 358 
  -14.8791   10.1449   24.4289 LP  0  0  0  0  0  0  0  0  0  0  0  0  # atno 2057 bound_to 358 

> <Gold.Protein.RotatedWaterAtoms>
  -17.7040   10.2320   24.0390 O.3 0  0  0  0  0  0  0  0  0  0  0  0  # atno 1    bound_to 2    3    AM1 ON 
  -17.6788   10.5729   23.1067 H   0  0  0  0  0  0  0  0  0  0  0  0  # atno 2    bound_to 1    AM1 ON 
  -18.5976   10.4119   24.4332 H   0  0  0  0  0  0  0  0  0  0  0  0  # atno 3    bound_to 1    AM1 ON 
  -17.0015   10.6927   24.5814 LP  0  0  0  0  0  0  0  0  0  0  0  0  # atno 4    bound_to 1    AM1 ON 
  -17.5321    9.2469   24.0385 LP  0  0  0  0  0  0  0  0  0  0  0  0  # atno 5    bound_to 1    AM1 ON 
  -13.7450   10.2720   23.0540 O.3 0  0  0  0  0  0  0  0  0  0  0  0  # atno 1    bound_to 2    3    AM2 ON 
  -14.1664    9.7306   23.7719 H   0  0  0  0  0  0  0  0  0  0  0  0  # atno 2    bound_to 1    AM2 ON 
  -14.2673   11.1057   22.9183 H   0  0  0  0  0  0  0  0  0  0  0  0  # atno 3    bound_to 1    AM2 ON 
  -13.7309    9.7454   22.2040 LP  0  0  0  0  0  0  0  0  0  0  0  0  # atno 4    bound_to 1    AM2 ON 
  -12.8088   10.5044   23.3177 LP  0  0  0  0  0  0  0  0  0  0  0  0  # atno 5    bound_to 1    AM2 ON 
  -21.1690   11.6250   24.3940 O.3 0  0  0  0  0  0  0  0  0  0  0  0  # atno 1    bound_to 2    3    AM3 ON 
  -21.4969   11.2001   25.2294 H   0  0  0  0  0  0  0  0  0  0  0  0  # atno 2    bound_to 1    AM3 ON 
  -20.8050   12.5254   24.6014 H   0  0  0  0  0  0  0  0  0  0  0  0  # atno 3    bound_to 1    AM3 ON 
  -21.9251   11.7124   23.7455 LP  0  0  0  0  0  0  0  0  0  0  0  0  # atno 4    bound_to 1    AM3 ON 
  -20.4492   11.0589   23.9924 LP  0  0  0  0  0  0  0  0  0  0  0  0  # atno 5    bound_to 1    AM3 ON 
  -14.6550   15.1580   23.4130 O.3 0  0  0  0  0  0  0  0  0  0  0  0  # atno 1    bound_to 2    3    AM4 ON 
  -15.3797   15.8366   23.3916 H   0  0  0  0  0  0  0  0  0  0  0  0  # atno 2    bound_to 1    AM4 ON 
  -13.7879   15.6054   23.5983 H   0  0  0  0  0  0  0  0  0  0  0  0  # atno 3    bound_to 1    AM4 ON 
  -14.6078   14.6927   22.5291 LP  0  0  0  0  0  0  0  0  0  0  0  0  # atno 4    bound_to 1    AM4 ON 
  -14.8455   14.4895   24.1319 LP  0  0  0  0  0  0  0  0  0  0  0  0  # atno 5    bound_to 1    AM4 ON 
  -23.6820   12.7820   28.0340 O.3 0  0  0  0  0  0  0  0  0  0  0  0  # atno 1    bound_to 2    3    AM5 OFF
  -24.5048   12.2610   27.8403 H   0  0  0  0  0  0  0  0  0  0  0  0  # atno 2    bound_to 1    AM5 OFF
  -22.8841   12.2144   27.8683 H   0  0  0  0  0  0  0  0  0  0  0  0  # atno 3    bound_to 1    AM5 OFF
  -23.6902   13.0747   28.9902 LP  0  0  0  0  0  0  0  0  0  0  0  0  # atno 4    bound_to 1    AM5 OFF
  -23.6486   13.5856   27.4397 LP  0  0  0  0  0  0  0  0  0  0  0  0  # atno 5    bound_to 1    AM5 OFF
  -16.9520   11.2350   21.5950 O.3 0  0  0  0  0  0  0  0  0  0  0  0  # atno 1    bound_to 2    3    AM6 ON 
  -16.2530   11.9401   21.6119 H   0  0  0  0  0  0  0  0  0  0  0  0  # atno 2    bound_to 1    AM6 ON 
  -16.8465   10.6838   20.7756 H   0  0  0  0  0  0  0  0  0  0  0  0  # atno 3    bound_to 1    AM6 ON 
  -17.8563   11.6620   21.5953 LP  0  0  0  0  0  0  0  0  0  0  0  0  # atno 4    bound_to 1    AM6 ON 
  -16.8579   10.6529   22.4027 LP  0  0  0  0  0  0  0  0  0  0  0  0  # atno 5    bound_to 1    AM6 ON 
  -14.9200   12.9840   21.7870 O.3 0  0  0  0  0  0  0  0  0  0  0  0  # atno 1    bound_to 2    3    AM7 ON 
  -14.7734   13.6648   22.4949 H   0  0  0  0  0  0  0  0  0  0  0  0  # atno 2    bound_to 1    AM7 ON 
  -14.0567   12.7795   21.3406 H   0  0  0  0  0  0  0  0  0  0  0  0  # atno 3    bound_to 1    AM7 ON 
  -15.5681   13.3382   21.1129 LP  0  0  0  0  0  0  0  0  0  0  0  0  # atno 4    bound_to 1    AM7 ON 
  -15.2887   12.1501   22.1977 LP  0  0  0  0  0  0  0  0  0  0  0  0  # atno 5    bound_to 1    AM7 ON 

> <Gold.Score>
     Score         DG    S(hbond)    S(metal)    S(lipo)     H(rot)  DE(clash)    DE(int)    S(bar)      intcor
     48.31     -48.65      13.11        0.00     123.47       1.20       0.20       0.14      12.00       0.30

> <Gold.Chemscore.Fitness>
48.3115

> <Gold.Chemscore.DG>
-48.6476

> <Gold.Chemscore.ZeroCoef>
-5.4800

> <Gold.Chemscore.Hbond>
13.1086

> <Gold.Chemscore.Metal>
0.0000

> <Gold.Chemscore.Lipo>
123.4728

> <Gold.Chemscore.Internal_Hbond>
0.0000

> <Gold.Chemscore.DEClash>
0.1960

> <Gold.Chemscore.DEInternal>
0.1402

> <Gold.Chemscore.Rot>
1.1958

> <Gold.Chemscore.Internal.Correction>
0.2974

> <Gold.Chemscore.SBar>
12.0000

> <Gold.Chemscore.Hbonds>
donor molecule, donor type, donor heavy atom, donor atom, acceptor molecule, acceptor atom, score
      L1  H     9    23       P1   238  0.97
     AM1  H     1     2      AM6     1  0.97
     AM2  H     1     2       P1   358  0.93
     AM3  H     1     2       P1   701  0.69
     AM4  H     1     2       P1   238  1.00
     AM4  H     1     3       P1   267  1.00
     AM6  H     1     2      AM7     1  0.98
     AM6  H     1     3       P1   634  0.97
     AM7  H     1     2      AM4     1  0.98
     AM7  H     1     3       P1   419  0.99
      P1  H   695  1497       L1     2  0.87
      P1  H   358  1251      AM1     1  0.93
      P1  H   416  1258      AM2     1  0.86
      P1  H   669  1470      AM3     1  0.95

> <Gold.Chemscore.Hbond.Weighted>
-43.7827

> <Gold.Chemscore.Metal.Weighted>
-0.0000

> <Gold.Chemscore.Lipo.Weighted>
-14.4463

> <Gold.Chemscore.Internal_Hbond.Weighted>
0.0000

> <Gold.Chemscore.DEClash.Weighted>
0.1960

> <Gold.Chemscore.DEInternal.Weighted>
0.1402

> <Gold.Chemscore.Rot.Weighted>
3.0613

> <Gold.Chemscore.Internal.Correction.Weighted>
0.2974

