#       Name:                F229-52DE4346A1D4B964-52DE4346A1D4B964-NMX
#       Creating user name   iorga
#       Creation time:       Wed Nov 27 18:22:21 2019


#       File generated by GOLD software.
#

@<TRIPOS>MOLECULE
F229-52DE4346A1D4B964-52DE4346A1D4B964-NMX|ligands_smiles_3D-hash|mol2|238|dock3
    28    29     1
SMALL
NO_CHARGES


@<TRIPOS>ATOM
      1 C1         -18.2302  12.2971  27.5811 C.3            1 <1>                0.0000
      2 C2         -18.2792  12.5764  26.1059 C.2            1 <1>                0.0000
      3 N3         -18.1530  11.5681  25.2546 N.2            1 <1>                0.0000
      4 N4         -18.2374  12.1509  24.0453 N.pl3          1 <1>                0.0000
      5 C5         -18.4161  13.5113  24.1204 C.2            1 <1>                0.0000
      6 C6         -18.4543  13.8333  25.4480 C.2            1 <1>                0.0000
      7 C7         -18.6312  15.1928  26.0663 C.3            1 <1>                0.0000
      8 N8         -17.4245  16.0014  25.9950 N.pl3          1 <1>                0.0000
      9 C9         -16.5733  16.1502  27.1002 C.ar           1 <1>                0.0000
     10 C10        -16.6797  15.3436  28.2588 C.ar           1 <1>                0.0000
     11 C11        -15.8001  15.5338  29.3424 C.ar           1 <1>                0.0000
     12 C12        -14.8070  16.5292  29.2799 C.ar           1 <1>                0.0000
     13 C13        -14.6949  17.3350  28.1316 C.ar           1 <1>                0.0000
     14 C14        -15.5739  17.1469  27.0470 C.ar           1 <1>                0.0000
     15 F15        -15.4528  17.9319  25.9488 F              1 <1>                0.0000
     16 H16        -17.8660  13.1628  28.1344 H              1 <1>                0.0000
     17 H17        -19.2211  12.0517  27.9634 H              1 <1>                0.0000
     18 H18        -17.5677  11.4610  27.8080 H              1 <1>                0.0000
     19 H19        -18.1728  11.6154  23.1914 H              1 <1>                0.0000
     20 H20        -18.5027  14.1270  23.2374 H              1 <1>                0.0000
     21 H21        -18.9241  15.1027  27.1130 H              1 <1>                0.0000
     22 H22        -19.4371  15.7296  25.5652 H              1 <1>                0.0000
     23 H23        -17.1693  16.4164  25.1100 H              1 <1>                0.0000
     24 H24        -17.4309  14.5722  28.3371 H              1 <1>                0.0000
     25 H25        -15.8883  14.9146  30.2230 H              1 <1>                0.0000
     26 H26        -14.1329  16.6745  30.1113 H              1 <1>                0.0000
     27 H27        -13.9336  18.0996  28.0817 H              1 <1>                0.0000
     28 ****       -18.0247  10.5985  25.4631 LP             1 <1>                0.0000
@<TRIPOS>BOND
    1    1    2 1     
    2    1   16 1     
    3    1   17 1     
    4    1   18 1     
    5    2    6 1     
    6    2    3 2     
    7    3    4 1     
    8    4    5 1     
    9    4   19 1     
   10    5    6 2     
   11    5   20 1     
   12    6    7 1     
   13    7    8 1     
   14    7   21 1     
   15    7   22 1     
   16    8    9 1     
   17    8   23 1     
   18    9   14 ar    
   19    9   10 ar    
   20   10   11 ar    
   21   10   24 1     
   22   11   12 ar    
   23   11   25 1     
   24   12   13 ar    
   25   12   26 1     
   26   13   14 ar    
   27   13   27 1     
   28   14   15 1     
   29    3   28 1     
@<TRIPOS>SUBSTRUCTURE
      1 ****           1
@<TRIPOS>SET
LONE_PAIRS      STATIC     ATOMS    <user>   **** ""
1 28
DONOR_HYDROGENS      STATIC     ATOMS    <user>   **** ""
2 19 23
ATOM$BLUE        STATIC     ATOMS    COLORGROUP SYSTEM
1 28
ATOM$RED        STATIC     ATOMS    COLORGROUP SYSTEM
2 19 23
@<TRIPOS>COMMENT
> <Gold.Version>
5.7.1

> <Gold.Id.Protein>
5ENC|5ENC_protein|mol2

> <Gold.Protein.RotatedTorsions>
[ 1501  701  700  697 ] final -104.15 input   60.00 | X-H torsion
[ 1497  695  694  692 ] final   40.80 input   60.00 | X-H torsion
[ 1251  358  357  355 ] final   -0.87 input   60.00 | X-H torsion
[ 1470  669  668  665 ] final   39.10 input   60.00 | X-H torsion

> <Gold.Protein.ActiveResidues>
 PRO28   PHE29   GLN31   PRO32   VAL33   TYR38   TYR41   PRO48   MET49   ASP50  
 ILE76   ASN79   SER80   TYR83   THR84   ILE91  

> <Gold.Protein.RotatedAtoms>
  -16.3677    9.5640   24.7101 H   0  0  0  0  0  0  0  0  0  0  0  0  # atno 1251 bound_to 358 
  -21.6670   11.0522   22.8750 H   0  0  0  0  0  0  0  0  0  0  0  0  # atno 1470 bound_to 669 
  -18.1992    9.5257   32.4682 H   0  0  0  0  0  0  0  0  0  0  0  0  # atno 1497 bound_to 695 
  -23.3818   11.3164   27.0709 H   0  0  0  0  0  0  0  0  0  0  0  0  # atno 1501 bound_to 701 
  -22.3834   11.2624   25.7871 LP  0  0  0  0  0  0  0  0  0  0  0  0  # atno 2046 bound_to 701 
  -22.4846    9.9860   26.8006 LP  0  0  0  0  0  0  0  0  0  0  0  0  # atno 2047 bound_to 701 
  -19.8030    9.3992   32.7128 LP  0  0  0  0  0  0  0  0  0  0  0  0  # atno 2052 bound_to 695 
  -19.1618   10.8091   32.1956 LP  0  0  0  0  0  0  0  0  0  0  0  0  # atno 2053 bound_to 695 
  -15.1412    8.5283   24.4440 LP  0  0  0  0  0  0  0  0  0  0  0  0  # atno 2056 bound_to 358 
  -14.8718   10.1388   24.4273 LP  0  0  0  0  0  0  0  0  0  0  0  0  # atno 2057 bound_to 358 

> <Gold.Protein.RotatedWaterAtoms>
  -17.7040   10.2320   24.0390 O.3 0  0  0  0  0  0  0  0  0  0  0  0  # atno 1    bound_to 2    3    AM1 ON 
  -18.5331   10.5186   24.5042 H   0  0  0  0  0  0  0  0  0  0  0  0  # atno 2    bound_to 1    AM1 ON 
  -17.6920   10.6103   23.1208 H   0  0  0  0  0  0  0  0  0  0  0  0  # atno 3    bound_to 1    AM1 ON 
  -17.6782    9.2336   23.9885 LP  0  0  0  0  0  0  0  0  0  0  0  0  # atno 4    bound_to 1    AM1 ON 
  -16.9069   10.5608   24.5455 LP  0  0  0  0  0  0  0  0  0  0  0  0  # atno 5    bound_to 1    AM1 ON 
  -13.7450   10.2720   23.0540 O.3 0  0  0  0  0  0  0  0  0  0  0  0  # atno 1    bound_to 2    3    AM2 ON 
  -14.3394   11.0299   22.8123 H   0  0  0  0  0  0  0  0  0  0  0  0  # atno 2    bound_to 1    AM2 ON 
  -14.2059    9.6861   23.7102 H   0  0  0  0  0  0  0  0  0  0  0  0  # atno 3    bound_to 1    AM2 ON 
  -12.9013   10.6257   23.4579 LP  0  0  0  0  0  0  0  0  0  0  0  0  # atno 4    bound_to 1    AM2 ON 
  -13.5260    9.7451   22.2328 LP  0  0  0  0  0  0  0  0  0  0  0  0  # atno 5    bound_to 1    AM2 ON 
  -21.1690   11.6250   24.3940 O.3 0  0  0  0  0  0  0  0  0  0  0  0  # atno 1    bound_to 2    3    AM3 ON 
  -21.4138   11.2506   25.2805 H   0  0  0  0  0  0  0  0  0  0  0  0  # atno 2    bound_to 1    AM3 ON 
  -20.2987   12.0984   24.4635 H   0  0  0  0  0  0  0  0  0  0  0  0  # atno 3    bound_to 1    AM3 ON 
  -21.8753   12.2676   24.0970 LP  0  0  0  0  0  0  0  0  0  0  0  0  # atno 4    bound_to 1    AM3 ON 
  -21.0925   10.8827   23.7283 LP  0  0  0  0  0  0  0  0  0  0  0  0  # atno 5    bound_to 1    AM3 ON 
  -14.6550   15.1580   23.4130 O.3 0  0  0  0  0  0  0  0  0  0  0  0  # atno 1    bound_to 2    3    AM4 ON 
  -15.3348   15.8811   23.3798 H   0  0  0  0  0  0  0  0  0  0  0  0  # atno 2    bound_to 1    AM4 ON 
  -13.7782   15.5400   23.6807 H   0  0  0  0  0  0  0  0  0  0  0  0  # atno 3    bound_to 1    AM4 ON 
  -14.5730   14.7358   22.5102 LP  0  0  0  0  0  0  0  0  0  0  0  0  # atno 4    bound_to 1    AM4 ON 
  -14.9352   14.4674   24.0797 LP  0  0  0  0  0  0  0  0  0  0  0  0  # atno 5    bound_to 1    AM4 ON 
  -23.6820   12.7820   28.0340 O.3 0  0  0  0  0  0  0  0  0  0  0  0  # atno 1    bound_to 2    3    AM5 ON 
  -23.8718   13.6658   27.6231 H   0  0  0  0  0  0  0  0  0  0  0  0  # atno 2    bound_to 1    AM5 ON 
  -23.6503   12.8764   29.0221 H   0  0  0  0  0  0  0  0  0  0  0  0  # atno 3    bound_to 1    AM5 ON 
  -22.8014   12.4428   27.7031 LP  0  0  0  0  0  0  0  0  0  0  0  0  # atno 4    bound_to 1    AM5 ON 
  -24.4033   12.1362   27.7838 LP  0  0  0  0  0  0  0  0  0  0  0  0  # atno 5    bound_to 1    AM5 ON 
  -16.9520   11.2350   21.5950 O.3 0  0  0  0  0  0  0  0  0  0  0  0  # atno 1    bound_to 2    3    AM6 ON 
  -16.9684   10.6949   20.7619 H   0  0  0  0  0  0  0  0  0  0  0  0  # atno 2    bound_to 1    AM6 ON 
  -16.1782   11.8570   21.5710 H   0  0  0  0  0  0  0  0  0  0  0  0  # atno 3    bound_to 1    AM6 ON 
  -16.8668   10.6273   22.3846 LP  0  0  0  0  0  0  0  0  0  0  0  0  # atno 4    bound_to 1    AM6 ON 
  -17.7998   11.7602   21.6686 LP  0  0  0  0  0  0  0  0  0  0  0  0  # atno 5    bound_to 1    AM6 ON 
  -14.9200   12.9840   21.7870 O.3 0  0  0  0  0  0  0  0  0  0  0  0  # atno 1    bound_to 2    3    AM7 ON 
  -14.8351   13.6645   22.5052 H   0  0  0  0  0  0  0  0  0  0  0  0  # atno 2    bound_to 1    AM7 ON 
  -14.0171   12.7432   21.4508 H   0  0  0  0  0  0  0  0  0  0  0  0  # atno 3    bound_to 1    AM7 ON 
  -15.4663   13.3571   21.0371 LP  0  0  0  0  0  0  0  0  0  0  0  0  # atno 4    bound_to 1    AM7 ON 
  -15.3683   12.1681   22.1521 LP  0  0  0  0  0  0  0  0  0  0  0  0  # atno 5    bound_to 1    AM7 ON 

> <Gold.Score>
     Score         DG    S(hbond)    S(metal)    S(lipo)     H(rot)  DE(clash)    DE(int)    S(bar)      intcor
     49.43     -50.18      13.94        0.00     130.68       1.23       0.37       0.38      14.00       0.00

> <Gold.Chemscore.Fitness>
49.4318

> <Gold.Chemscore.DG>
-50.1791

> <Gold.Chemscore.ZeroCoef>
-5.4800

> <Gold.Chemscore.Hbond>
13.9366

> <Gold.Chemscore.Metal>
0.0000

> <Gold.Chemscore.Lipo>
130.6850

> <Gold.Chemscore.Internal_Hbond>
0.0000

> <Gold.Chemscore.DEClash>
0.3710

> <Gold.Chemscore.DEInternal>
0.3764

> <Gold.Chemscore.Rot>
1.2263

> <Gold.Chemscore.Internal.Correction>
0.0002

> <Gold.Chemscore.SBar>
14.0000

> <Gold.Chemscore.Hbonds>
donor molecule, donor type, donor heavy atom, donor atom, acceptor molecule, acceptor atom, score
      L1  H     4    19      AM6     1  0.68
      L1  H     8    23       P1   238  1.00
     AM1  H     1     3      AM6     1  0.97
     AM2  H     1     3       P1   358  0.94
     AM3  H     1     2       P1   701  0.70
     AM4  H     1     2       P1   238  1.00
     AM4  H     1     3       P1   267  0.98
     AM6  H     1     2       P1   634  1.00
     AM6  H     1     3      AM7     1  0.95
     AM7  H     1     2      AM4     1  0.98
     AM7  H     1     3       P1   419  1.00
      P1  H   701  1501      AM5     1  0.99
      P1  H   358  1251      AM1     1  0.95
      P1  H   416  1258      AM2     1  0.85
      P1  H   669  1470      AM3     1  0.95

> <Gold.Chemscore.Hbond.Weighted>
-46.5484

> <Gold.Chemscore.Metal.Weighted>
-0.0000

> <Gold.Chemscore.Lipo.Weighted>
-15.2901

> <Gold.Chemscore.Internal_Hbond.Weighted>
0.0000

> <Gold.Chemscore.DEClash.Weighted>
0.3710

> <Gold.Chemscore.DEInternal.Weighted>
0.3764

> <Gold.Chemscore.Rot.Weighted>
3.1394

> <Gold.Chemscore.Internal.Correction.Weighted>
0.0002

