#       Name:                F710-FA90DA40A9468DCC-FA90DA40A9468DCC-NMX
#       Creating user name   iorga
#       Creation time:       Wed Nov 27 19:08:48 2019


#       File generated by GOLD software.
#

@<TRIPOS>MOLECULE
F710-FA90DA40A9468DCC-FA90DA40A9468DCC-NMX|ligands_smiles_3D-hash|mol2|731|dock23
    33    34     1
SMALL
NO_CHARGES


@<TRIPOS>ATOM
      1 N1         -16.2733  14.0748  23.4845 N.am           1 <1>                0.0000
      2 C2         -16.7010  12.9804  24.1212 C.2            1 <1>                0.0000
      3 O3         -16.2748  11.8666  23.8205 O.2            1 <1>                0.0000
      4 N4         -17.6467  13.1954  25.0691 N.am           1 <1>                0.0000
      5 C5         -18.6756  12.2374  25.5103 C.3            1 <1>                0.0000
      6 C6         -18.6229  12.1250  27.0461 C.3            1 <1>                0.0000
      7 N7         -18.7445  13.4487  27.6693 N.3            1 <1>                0.0000
      8 C8         -17.8272  14.4620  27.1505 C.3            1 <1>                0.0000
      9 C9         -17.9034  14.5296  25.6131 C.3            1 <1>                0.0000
     10 C10        -18.8039  13.3914  29.0684 C.ar           1 <1>                0.0000
     11 C11        -17.6766  13.0308  29.8419 C.ar           1 <1>                0.0000
     12 C12        -17.7673  12.9785  31.2464 C.ar           1 <1>                0.0000
     13 C13        -18.9837  13.2853  31.8859 C.ar           1 <1>                0.0000
     14 F14        -19.0708  13.2358  33.2362 F              1 <1>                0.0000
     15 C15        -20.1103  13.6420  31.1202 C.ar           1 <1>                0.0000
     16 C16        -20.0205  13.6928  29.7154 C.ar           1 <1>                0.0000
     17 H17        -15.5704  13.9910  22.7648 H              1 <1>                0.0000
     18 H18        -16.6543  14.9783  23.7239 H              1 <1>                0.0000
     19 H19        -19.6866  12.4952  25.1964 H              1 <1>                0.0000
     20 H20        -18.4706  11.2650  25.0600 H              1 <1>                0.0000
     21 H21        -17.6814  11.6680  27.3534 H              1 <1>                0.0000
     22 H22        -19.4248  11.4727  27.3938 H              1 <1>                0.0000
     23 H23        -16.8085  14.2277  27.4617 H              1 <1>                0.0000
     24 H24        -18.0766  15.4351  27.5764 H              1 <1>                0.0000
     25 H25        -17.1518  15.2216  25.2304 H              1 <1>                0.0000
     26 H26        -18.8668  14.9392  25.3067 H              1 <1>                0.0000
     27 H27        -16.7392  12.7897  29.3624 H              1 <1>                0.0000
     28 H28        -16.9032  12.7020  31.8324 H              1 <1>                0.0000
     29 H29        -21.0439  13.8764  31.6101 H              1 <1>                0.0000
     30 H30        -20.8897  13.9660  29.1349 H              1 <1>                0.0000
     31 ****       -15.5984  11.7705  23.0903 LP             1 <1>                0.0000
     32 ****       -16.6046  11.0571  24.3063 LP             1 <1>                0.0000
     33 ****       -19.6397  13.7787  27.3697 LP             1 <1>                0.0000
@<TRIPOS>BOND
    1    1    2 am    
    2    1   17 1     
    3    1   18 1     
    4    2    3 2     
    5    2    4 am    
    6    9    4 1     
    7    4    5 1     
    8    5    6 1     
    9    5   19 1     
   10    5   20 1     
   11    6    7 1     
   12    6   21 1     
   13    6   22 1     
   14    7    8 1     
   15    7   10 1     
   16    8    9 1     
   17    8   23 1     
   18    8   24 1     
   19    9   25 1     
   20    9   26 1     
   21   10   16 ar    
   22   10   11 ar    
   23   11   12 ar    
   24   11   27 1     
   25   12   13 ar    
   26   12   28 1     
   27   13   14 1     
   28   13   15 ar    
   29   15   16 ar    
   30   15   29 1     
   31   16   30 1     
   32    3   31 1     
   33    3   32 1     
   34    7   33 1     
@<TRIPOS>SUBSTRUCTURE
      1 ****           1
@<TRIPOS>SET
LONE_PAIRS      STATIC     ATOMS    <user>   **** ""
3 31 32 33
DONOR_HYDROGENS      STATIC     ATOMS    <user>   **** ""
2 17 18
ATOM$BLUE        STATIC     ATOMS    COLORGROUP SYSTEM
3 31 32 33
ATOM$RED        STATIC     ATOMS    COLORGROUP SYSTEM
2 17 18
@<TRIPOS>COMMENT
> <Gold.Version>
5.7.1

> <Gold.Id.Protein>
5ENC|5ENC_protein|mol2

> <Gold.Protein.RotatedTorsions>
[ 1501  701  700  697 ] final  -31.97 input   60.00 | X-H torsion
[ 1497  695  694  692 ] final  -91.40 input   60.00 | X-H torsion
[ 1251  358  357  355 ] final   53.61 input   60.00 | X-H torsion
[ 1470  669  668  665 ] final   36.79 input   60.00 | X-H torsion

> <Gold.Protein.ActiveResidues>
 PRO28   PHE29   GLN31   PRO32   VAL33   TYR38   TYR41   PRO48   MET49   ASP50  
 ILE76   ASN79   SER80   TYR83   THR84   ILE91  

> <Gold.Protein.RotatedAtoms>
  -15.8625   10.2513   24.6264 H   0  0  0  0  0  0  0  0  0  0  0  0  # atno 1251 bound_to 358 
  -21.6874   11.0205   22.8764 H   0  0  0  0  0  0  0  0  0  0  0  0  # atno 1470 bound_to 669 
  -19.8985    9.5692   32.6699 H   0  0  0  0  0  0  0  0  0  0  0  0  # atno 1497 bound_to 695 
  -23.0004   10.2999   27.2648 H   0  0  0  0  0  0  0  0  0  0  0  0  # atno 1501 bound_to 701 
  -23.1330   11.7141   26.4709 LP  0  0  0  0  0  0  0  0  0  0  0  0  # atno 2046 bound_to 701 
  -22.1191   10.5580   25.9214 LP  0  0  0  0  0  0  0  0  0  0  0  0  # atno 2047 bound_to 701 
  -18.9630   10.8041   32.1720 LP  0  0  0  0  0  0  0  0  0  0  0  0  # atno 2052 bound_to 695 
  -18.2905    9.3605   32.5333 LP  0  0  0  0  0  0  0  0  0  0  0  0  # atno 2053 bound_to 695 
  -15.9820    8.6285   24.6111 LP  0  0  0  0  0  0  0  0  0  0  0  0  # atno 2056 bound_to 358 
  -14.5398    9.3464   24.3444 LP  0  0  0  0  0  0  0  0  0  0  0  0  # atno 2057 bound_to 358 

> <Gold.Protein.RotatedWaterAtoms>
  -17.7040   10.2320   24.0390 O.3 0  0  0  0  0  0  0  0  0  0  0  0  # atno 1    bound_to 2    3    AM1 OFF
  -17.0294    9.5234   23.8692 H   0  0  0  0  0  0  0  0  0  0  0  0  # atno 2    bound_to 1    AM1 OFF
  -18.5818    9.8124   24.2382 H   0  0  0  0  0  0  0  0  0  0  0  0  # atno 3    bound_to 1    AM1 OFF
  -17.7883   10.8129   23.2294 LP  0  0  0  0  0  0  0  0  0  0  0  0  # atno 4    bound_to 1    AM1 OFF
  -17.4152   10.7872   24.8190 LP  0  0  0  0  0  0  0  0  0  0  0  0  # atno 5    bound_to 1    AM1 OFF
  -13.7450   10.2720   23.0540 O.3 0  0  0  0  0  0  0  0  0  0  0  0  # atno 1    bound_to 2    3    AM2 ON 
  -13.2894   10.9335   22.4702 H   0  0  0  0  0  0  0  0  0  0  0  0  # atno 2    bound_to 1    AM2 ON 
  -14.5817   10.6685   23.4132 H   0  0  0  0  0  0  0  0  0  0  0  0  # atno 3    bound_to 1    AM2 ON 
  -13.1412   10.0245   23.8118 LP  0  0  0  0  0  0  0  0  0  0  0  0  # atno 4    bound_to 1    AM2 ON 
  -13.9652    9.4541   22.5224 LP  0  0  0  0  0  0  0  0  0  0  0  0  # atno 5    bound_to 1    AM2 ON 
  -21.1690   11.6250   24.3940 O.3 0  0  0  0  0  0  0  0  0  0  0  0  # atno 1    bound_to 2    3    AM3 ON 
  -20.3421   12.1673   24.4843 H   0  0  0  0  0  0  0  0  0  0  0  0  # atno 2    bound_to 1    AM3 ON 
  -21.5381   11.4317   25.2955 H   0  0  0  0  0  0  0  0  0  0  0  0  # atno 3    bound_to 1    AM3 ON 
  -20.9549   10.7654   23.9300 LP  0  0  0  0  0  0  0  0  0  0  0  0  # atno 4    bound_to 1    AM3 ON 
  -21.8442   12.1332   23.8593 LP  0  0  0  0  0  0  0  0  0  0  0  0  # atno 5    bound_to 1    AM3 ON 
  -14.6550   15.1580   23.4130 O.3 0  0  0  0  0  0  0  0  0  0  0  0  # atno 1    bound_to 2    3    AM4 ON 
  -13.7794   15.5820   23.6120 H   0  0  0  0  0  0  0  0  0  0  0  0  # atno 2    bound_to 1    AM4 ON 
  -15.3861   15.8019   23.6059 H   0  0  0  0  0  0  0  0  0  0  0  0  # atno 3    bound_to 1    AM4 ON 
  -14.7685   14.3442   23.9830 LP  0  0  0  0  0  0  0  0  0  0  0  0  # atno 4    bound_to 1    AM4 ON 
  -14.6871   14.8964   22.4484 LP  0  0  0  0  0  0  0  0  0  0  0  0  # atno 5    bound_to 1    AM4 ON 
  -23.6820   12.7820   28.0340 O.3 0  0  0  0  0  0  0  0  0  0  0  0  # atno 1    bound_to 2    3    AM5 OFF
  -24.1500   13.6575   28.0096 H   0  0  0  0  0  0  0  0  0  0  0  0  # atno 2    bound_to 1    AM5 OFF
  -22.7990   12.8661   27.5872 H   0  0  0  0  0  0  0  0  0  0  0  0  # atno 3    bound_to 1    AM5 OFF
  -24.2326   12.0964   27.5578 LP  0  0  0  0  0  0  0  0  0  0  0  0  # atno 4    bound_to 1    AM5 OFF
  -23.5492   12.5013   28.9846 LP  0  0  0  0  0  0  0  0  0  0  0  0  # atno 5    bound_to 1    AM5 OFF
  -16.9520   11.2350   21.5950 O.3 0  0  0  0  0  0  0  0  0  0  0  0  # atno 1    bound_to 2    3    AM6 ON 
  -16.9324   10.6948   20.7620 H   0  0  0  0  0  0  0  0  0  0  0  0  # atno 2    bound_to 1    AM6 ON 
  -16.3267   12.0016   21.5071 H   0  0  0  0  0  0  0  0  0  0  0  0  # atno 3    bound_to 1    AM6 ON 
  -16.6742   10.6652   22.3684 LP  0  0  0  0  0  0  0  0  0  0  0  0  # atno 4    bound_to 1    AM6 ON 
  -17.8791   11.5769   21.7488 LP  0  0  0  0  0  0  0  0  0  0  0  0  # atno 5    bound_to 1    AM6 ON 
  -14.9200   12.9840   21.7870 O.3 0  0  0  0  0  0  0  0  0  0  0  0  # atno 1    bound_to 2    3    AM7 ON 
  -14.0238   12.5811   21.6437 H   0  0  0  0  0  0  0  0  0  0  0  0  # atno 2    bound_to 1    AM7 ON 
  -14.8430   13.7463   22.4189 H   0  0  0  0  0  0  0  0  0  0  0  0  # atno 3    bound_to 1    AM7 ON 
  -15.5377   12.2961   22.1681 LP  0  0  0  0  0  0  0  0  0  0  0  0  # atno 4    bound_to 1    AM7 ON 
  -15.2823   13.3101   20.9139 LP  0  0  0  0  0  0  0  0  0  0  0  0  # atno 5    bound_to 1    AM7 ON 

> <Gold.Score>
     Score         DG    S(hbond)    S(metal)    S(lipo)     H(rot)  DE(clash)    DE(int)    S(bar)      intcor
     44.34     -46.95      11.62        0.00     130.17       1.00       2.60       0.01      10.00       0.55

> <Gold.Chemscore.Fitness>
44.3393

> <Gold.Chemscore.DG>
-46.9518

> <Gold.Chemscore.ZeroCoef>
-5.4800

> <Gold.Chemscore.Hbond>
11.6173

> <Gold.Chemscore.Metal>
0.0000

> <Gold.Chemscore.Lipo>
130.1701

> <Gold.Chemscore.Internal_Hbond>
0.0000

> <Gold.Chemscore.DEClash>
2.6041

> <Gold.Chemscore.DEInternal>
0.0084

> <Gold.Chemscore.Rot>
1.0000

> <Gold.Chemscore.Internal.Correction>
0.5504

> <Gold.Chemscore.SBar>
10.0000

> <Gold.Chemscore.Hbonds>
donor molecule, donor type, donor heavy atom, donor atom, acceptor molecule, acceptor atom, score
      L1  H     1    18       P1   238  0.95
     AM2  H     1     2       P1   419  0.98
     AM2  H     1     3       L1     3  0.91
     AM3  H     1     3       P1   701  0.79
     AM4  H     1     2       P1   267  1.00
     AM4  H     1     3       P1   238  1.00
     AM6  H     1     2       P1   634  1.00
     AM6  H     1     3      AM7     1  0.96
     AM7  H     1     2       P1   419  0.99
     AM7  H     1     3      AM4     1  0.99
      P1  H   358  1251       L1     3  1.00
      P1  H   669  1470      AM3     1  0.96
      P1  H   663  1465      AM2     1  0.10

> <Gold.Chemscore.Hbond.Weighted>
-38.8019

> <Gold.Chemscore.Metal.Weighted>
-0.0000

> <Gold.Chemscore.Lipo.Weighted>
-15.2299

> <Gold.Chemscore.Internal_Hbond.Weighted>
0.0000

> <Gold.Chemscore.DEClash.Weighted>
2.6041

> <Gold.Chemscore.DEInternal.Weighted>
0.0084

> <Gold.Chemscore.Rot.Weighted>
2.5600

> <Gold.Chemscore.Internal.Correction.Weighted>
0.5504

