#       Name:                F217-04912622F485E7D4-04912622F485E7D4-NMX
#       Creating user name   iorga
#       Creation time:       Wed Nov 27 17:08:28 2019


#       File generated by GOLD software.
#

@<TRIPOS>MOLECULE
F217-04912622F485E7D4-04912622F485E7D4-NMX|ligands_smiles_3D-hash|mol2|224|dock21
    31    32     1
SMALL
NO_CHARGES


@<TRIPOS>ATOM
      1 C1         -18.6492  17.9195  28.1168 C.3            1 <1>                0.0000
      2 C2         -18.3236  16.5715  28.6767 C.2            1 <1>                0.0000
      3 N3         -18.4579  16.2856  29.9720 N.2            1 <1>                0.0000
      4 C4         -18.0477  14.9673  30.0349 C.ar           1 <1>                0.0000
      5 C5         -17.9535  14.0849  31.1349 C.ar           1 <1>                0.0000
      6 C6         -17.4968  12.7630  30.9527 C.ar           1 <1>                0.0000
      7 C7         -17.1277  12.3050  29.6713 C.ar           1 <1>                0.0000
      8 C8         -17.2140  13.1676  28.5616 C.ar           1 <1>                0.0000
      9 C9         -17.6717  14.4855  28.7488 C.ar           1 <1>                0.0000
     10 N10        -17.8696  15.5635  27.8927 N.pl3          1 <1>                0.0000
     11 C11        -17.6226  15.5804  26.4599 C.3            1 <1>                0.0000
     12 C12        -18.7415  14.8572  25.6885 C.3            1 <1>                0.0000
     13 C13        -18.2196  13.7108  24.8180 C.2            1 <1>                0.0000
     14 O14        -18.5634  12.5487  25.0265 O.2            1 <1>                0.0000
     15 N15        -17.3842  14.0378  23.8291 N.am           1 <1>                0.0000
     16 H16        -18.8733  18.6234  28.9192 H              1 <1>                0.0000
     17 H17        -17.8054  18.3073  27.5461 H              1 <1>                0.0000
     18 H18        -19.5190  17.8540  27.4629 H              1 <1>                0.0000
     19 H19        -18.2320  14.4266  32.1208 H              1 <1>                0.0000
     20 H20        -17.4285  12.0972  31.8005 H              1 <1>                0.0000
     21 H21        -16.7778  11.2914  29.5406 H              1 <1>                0.0000
     22 H22        -16.9313  12.8214  27.5785 H              1 <1>                0.0000
     23 H23        -16.6515  15.1275  26.2573 H              1 <1>                0.0000
     24 H24        -17.5489  16.6199  26.1377 H              1 <1>                0.0000
     25 H25        -19.2706  15.5729  25.0573 H              1 <1>                0.0000
     26 H26        -19.4761  14.4531  26.3859 H              1 <1>                0.0000
     27 H27        -17.0109  13.3199  23.2252 H              1 <1>                0.0000
     28 H28        -17.1285  15.0044  23.6884 H              1 <1>                0.0000
     29 ****       -18.7759  16.8772  30.7129 LP             1 <1>                0.0000
     30 ****       -19.1936  12.3403  25.7744 LP             1 <1>                0.0000
     31 ****       -18.2128  11.8121  24.4481 LP             1 <1>                0.0000
@<TRIPOS>BOND
    1    1    2 1     
    2    1   16 1     
    3    1   17 1     
    4    1   18 1     
    5    2   10 1     
    6    2    3 2     
    7    3    4 1     
    8    4    9 ar    
    9    4    5 ar    
   10    5    6 ar    
   11    5   19 1     
   12    6    7 ar    
   13    6   20 1     
   14    7    8 ar    
   15    7   21 1     
   16    8    9 ar    
   17    8   22 1     
   18    9   10 1     
   19   10   11 1     
   20   11   12 1     
   21   11   23 1     
   22   11   24 1     
   23   12   13 1     
   24   12   25 1     
   25   12   26 1     
   26   13   14 2     
   27   13   15 am    
   28   15   27 1     
   29   15   28 1     
   30    3   29 1     
   31   14   30 1     
   32   14   31 1     
@<TRIPOS>SUBSTRUCTURE
      1 ****           1
@<TRIPOS>SET
LONE_PAIRS      STATIC     ATOMS    <user>   **** ""
3 29 30 31
DONOR_HYDROGENS      STATIC     ATOMS    <user>   **** ""
2 27 28
ATOM$BLUE        STATIC     ATOMS    COLORGROUP SYSTEM
3 29 30 31
ATOM$RED        STATIC     ATOMS    COLORGROUP SYSTEM
2 27 28
@<TRIPOS>COMMENT
> <Gold.Version>
5.7.1

> <Gold.Id.Protein>
5ENC|5ENC_protein|mol2

> <Gold.Protein.RotatedTorsions>
[ 1501  701  700  697 ] final -114.71 input   60.00 | X-H torsion
[ 1497  695  694  692 ] final -144.27 input   60.00 | X-H torsion
[ 1251  358  357  355 ] final   -5.04 input   60.00 | X-H torsion
[ 1470  669  668  665 ] final   66.51 input   60.00 | X-H torsion

> <Gold.Protein.ActiveResidues>
 PRO28   PHE29   GLN31   PRO32   VAL33   TYR38   TYR41   PRO48   MET49   ASP50  
 ILE76   ASN79   SER80   TYR83   THR84   ILE91  

> <Gold.Protein.RotatedAtoms>
  -16.3765    9.4966   24.7103 H   0  0  0  0  0  0  0  0  0  0  0  0  # atno 1251 bound_to 358 
  -21.4748   11.4333   22.7542 H   0  0  0  0  0  0  0  0  0  0  0  0  # atno 1470 bound_to 669 
  -19.8707   10.3641   32.4206 H   0  0  0  0  0  0  0  0  0  0  0  0  # atno 1497 bound_to 695 
  -23.3605   11.4428   26.9556 H   0  0  0  0  0  0  0  0  0  0  0  0  # atno 1501 bound_to 701 
  -22.2944   11.1142   25.7709 LP  0  0  0  0  0  0  0  0  0  0  0  0  # atno 2046 bound_to 701 
  -22.5951   10.0069   26.9328 LP  0  0  0  0  0  0  0  0  0  0  0  0  # atno 2047 bound_to 701 
  -18.2557   10.3546   32.2215 LP  0  0  0  0  0  0  0  0  0  0  0  0  # atno 2052 bound_to 695 
  -19.0259    9.0093   32.7350 LP  0  0  0  0  0  0  0  0  0  0  0  0  # atno 2053 bound_to 695 
  -15.0790    8.5546   24.4324 LP  0  0  0  0  0  0  0  0  0  0  0  0  # atno 2056 bound_to 358 
  -14.9251   10.1803   24.4387 LP  0  0  0  0  0  0  0  0  0  0  0  0  # atno 2057 bound_to 358 

> <Gold.Protein.RotatedWaterAtoms>
  -17.7040   10.2320   24.0390 O.3 0  0  0  0  0  0  0  0  0  0  0  0  # atno 1    bound_to 2    3    AM1 ON 
  -18.1586   10.9500   24.5527 H   0  0  0  0  0  0  0  0  0  0  0  0  # atno 2    bound_to 1    AM1 ON 
  -17.6795   10.4780   23.0771 H   0  0  0  0  0  0  0  0  0  0  0  0  # atno 3    bound_to 1    AM1 ON 
  -18.2048    9.3737   24.1509 LP  0  0  0  0  0  0  0  0  0  0  0  0  # atno 4    bound_to 1    AM1 ON 
  -16.7700   10.1196   24.3782 LP  0  0  0  0  0  0  0  0  0  0  0  0  # atno 5    bound_to 1    AM1 ON 
  -13.7450   10.2720   23.0540 O.3 0  0  0  0  0  0  0  0  0  0  0  0  # atno 1    bound_to 2    3    AM2 ON 
  -14.1786    9.6778   23.7210 H   0  0  0  0  0  0  0  0  0  0  0  0  # atno 2    bound_to 1    AM2 ON 
  -14.0035   11.2141   23.2325 H   0  0  0  0  0  0  0  0  0  0  0  0  # atno 3    bound_to 1    AM2 ON 
  -14.0415   10.0134   22.1346 LP  0  0  0  0  0  0  0  0  0  0  0  0  # atno 4    bound_to 1    AM2 ON 
  -12.7515   10.1803   23.1219 LP  0  0  0  0  0  0  0  0  0  0  0  0  # atno 5    bound_to 1    AM2 ON 
  -21.1690   11.6250   24.3940 O.3 0  0  0  0  0  0  0  0  0  0  0  0  # atno 1    bound_to 2    3    AM3 ON 
  -21.7695   11.4361   25.1620 H   0  0  0  0  0  0  0  0  0  0  0  0  # atno 2    bound_to 1    AM3 ON 
  -20.2551   11.8221   24.7290 H   0  0  0  0  0  0  0  0  0  0  0  0  # atno 3    bound_to 1    AM3 ON 
  -21.5153   12.4138   23.8862 LP  0  0  0  0  0  0  0  0  0  0  0  0  # atno 4    bound_to 1    AM3 ON 
  -21.1382   10.8278   23.7910 LP  0  0  0  0  0  0  0  0  0  0  0  0  # atno 5    bound_to 1    AM3 ON 
  -14.6550   15.1580   23.4130 O.3 0  0  0  0  0  0  0  0  0  0  0  0  # atno 1    bound_to 2    3    AM4 ON 
  -13.7968   15.6406   23.5420 H   0  0  0  0  0  0  0  0  0  0  0  0  # atno 2    bound_to 1    AM4 ON 
  -15.4118   15.7690   23.6136 H   0  0  0  0  0  0  0  0  0  0  0  0  # atno 3    bound_to 1    AM4 ON 
  -14.6903   14.3705   24.0283 LP  0  0  0  0  0  0  0  0  0  0  0  0  # atno 4    bound_to 1    AM4 ON 
  -14.7219   14.8442   22.4659 LP  0  0  0  0  0  0  0  0  0  0  0  0  # atno 5    bound_to 1    AM4 ON 
  -23.6820   12.7820   28.0340 O.3 0  0  0  0  0  0  0  0  0  0  0  0  # atno 1    bound_to 2    3    AM5 ON 
  -23.0417   13.5116   28.2434 H   0  0  0  0  0  0  0  0  0  0  0  0  # atno 2    bound_to 1    AM5 ON 
  -24.2876   12.6407   28.8084 H   0  0  0  0  0  0  0  0  0  0  0  0  # atno 3    bound_to 1    AM5 ON 
  -23.1774   11.9391   27.8472 LP  0  0  0  0  0  0  0  0  0  0  0  0  # atno 4    bound_to 1    AM5 ON 
  -24.2216   13.0325   27.2302 LP  0  0  0  0  0  0  0  0  0  0  0  0  # atno 5    bound_to 1    AM5 ON 
  -16.9520   11.2350   21.5950 O.3 0  0  0  0  0  0  0  0  0  0  0  0  # atno 1    bound_to 2    3    AM6 ON 
  -16.8829   10.7399   20.7370 H   0  0  0  0  0  0  0  0  0  0  0  0  # atno 2    bound_to 1    AM6 ON 
  -16.2432   11.9295   21.6344 H   0  0  0  0  0  0  0  0  0  0  0  0  # atno 3    bound_to 1    AM6 ON 
  -16.8376   10.5982   22.3575 LP  0  0  0  0  0  0  0  0  0  0  0  0  # atno 4    bound_to 1    AM6 ON 
  -17.8498   11.6711   21.6568 LP  0  0  0  0  0  0  0  0  0  0  0  0  # atno 5    bound_to 1    AM6 ON 
  -14.9200   12.9840   21.7870 O.3 0  0  0  0  0  0  0  0  0  0  0  0  # atno 1    bound_to 2    3    AM7 ON 
  -14.0514   12.7517   21.3656 H   0  0  0  0  0  0  0  0  0  0  0  0  # atno 2    bound_to 1    AM7 ON 
  -14.7824   13.7105   22.4500 H   0  0  0  0  0  0  0  0  0  0  0  0  # atno 3    bound_to 1    AM7 ON 
  -15.2930   12.1786   22.2476 LP  0  0  0  0  0  0  0  0  0  0  0  0  # atno 4    bound_to 1    AM7 ON 
  -15.5602   13.2919   21.0832 LP  0  0  0  0  0  0  0  0  0  0  0  0  # atno 5    bound_to 1    AM7 ON 

> <Gold.Score>
     Score         DG    S(hbond)    S(metal)    S(lipo)     H(rot)  DE(clash)    DE(int)    S(bar)      intcor
     49.76     -50.43      14.93        0.00     118.15       1.85       0.07       0.60      14.00       0.00

> <Gold.Chemscore.Fitness>
49.7649

> <Gold.Chemscore.DG>
-50.4333

> <Gold.Chemscore.ZeroCoef>
-5.4800

> <Gold.Chemscore.Hbond>
14.9264

> <Gold.Chemscore.Metal>
0.0000

> <Gold.Chemscore.Lipo>
118.1500

> <Gold.Chemscore.Internal_Hbond>
0.0000

> <Gold.Chemscore.DEClash>
0.0665

> <Gold.Chemscore.DEInternal>
0.6019

> <Gold.Chemscore.Rot>
1.8455

> <Gold.Chemscore.Internal.Correction>
0.0002

> <Gold.Chemscore.SBar>
14.0000

> <Gold.Chemscore.Hbonds>
donor molecule, donor type, donor heavy atom, donor atom, acceptor molecule, acceptor atom, score
      L1  H    15    28       P1   238  0.99
     AM1  H     1     2       L1    14  0.99
     AM1  H     1     3      AM6     1  0.96
     AM2  H     1     2       P1   358  0.93
     AM3  H     1     2       P1   701  0.43
     AM3  H     1     3       L1    14  1.00
     AM4  H     1     2       P1   267  1.00
     AM4  H     1     3       P1   238  1.00
     AM6  H     1     2       P1   634  0.98
     AM6  H     1     3      AM7     1  0.97
     AM7  H     1     2       P1   419  1.00
     AM7  H     1     3      AM4     1  0.99
      P1  H   701  1501      AM5     1  0.97
      P1  H   358  1251      AM1     1  0.89
      P1  H   416  1258      AM2     1  0.86
      P1  H   669  1470      AM3     1  0.97

> <Gold.Chemscore.Hbond.Weighted>
-49.8542

> <Gold.Chemscore.Metal.Weighted>
-0.0000

> <Gold.Chemscore.Lipo.Weighted>
-13.8235

> <Gold.Chemscore.Internal_Hbond.Weighted>
0.0000

> <Gold.Chemscore.DEClash.Weighted>
0.0665

> <Gold.Chemscore.DEInternal.Weighted>
0.6019

> <Gold.Chemscore.Rot.Weighted>
4.7244

> <Gold.Chemscore.Internal.Correction.Weighted>
0.0002

