#       Name:                F728-6B3BB4567628C30E-6B3BB4567628C30E-NMX
#       Creating user name   iorga
#       Creation time:       Mon Dec  9 18:23:44 2019


#       File generated by GOLD software.
#

@<TRIPOS>MOLECULE
F728-6B3BB4567628C30E-6B3BB4567628C30E-NMX|ligands_smiles_3D-hash-site4|mol2|1|dock39
    35    36     1
SMALL
NO_CHARGES


@<TRIPOS>ATOM
      1 O1         -29.7932   4.5878  18.7686 O.2            1 <1>                0.0000
      2 C2         -29.0245   3.9722  18.0311 C.2            1 <1>                0.0000
      3 C3         -27.5374   4.3412  18.0283 C.3            1 <1>                0.0000
      4 C4         -26.8125   3.9962  19.3497 C.3            1 <1>                0.0000
      5 C5         -27.2487   4.8840  20.5390 C.3            1 <1>                0.0000
      6 C6         -26.5206   4.4989  21.8373 C.3            1 <1>                0.0000
      7 C7         -26.7176   3.0131  22.1709 C.3            1 <1>                0.0000
      8 C8         -26.2782   2.1235  20.9990 C.3            1 <1>                0.0000
      9 C9         -27.0114   2.5076  19.7037 C.3            1 <1>                0.0000
     10 N10        -29.3654   2.9577  17.2105 N.am           1 <1>                0.0000
     11 N11        -30.6721   2.4838  17.0561 N.pl3          1 <1>                0.0000
     12 C12        -31.0130   1.1923  17.0807 C.2            1 <1>                0.0000
     13 N13        -32.3236   0.9958  16.9066 N.2            1 <1>                0.0000
     14 N14        -32.8708   2.2693  16.7559 N.2            1 <1>                0.0000
     15 C15        -31.8403   3.1165  16.8533 C.2            1 <1>                0.0000
     16 H16        -27.4447   5.4091  17.8238 H              1 <1>                0.0000
     17 H17        -27.0512   3.8352  17.1929 H              1 <1>                0.0000
     18 H18        -25.7435   4.1519  19.1933 H              1 <1>                0.0000
     19 H19        -27.0510   5.9349  20.3291 H              1 <1>                0.0000
     20 H20        -28.3259   4.7971  20.6872 H              1 <1>                0.0000
     21 H21        -26.8808   5.1148  22.6616 H              1 <1>                0.0000
     22 H22        -25.4558   4.7122  21.7349 H              1 <1>                0.0000
     23 H23        -27.7672   2.8252  22.4007 H              1 <1>                0.0000
     24 H24        -26.1533   2.7544  23.0672 H              1 <1>                0.0000
     25 H25        -26.4673   1.0763  21.2368 H              1 <1>                0.0000
     26 H26        -25.2016   2.2178  20.8513 H              1 <1>                0.0000
     27 H27        -28.0756   2.2940  19.8123 H              1 <1>                0.0000
     28 H28        -26.6536   1.8784  18.8880 H              1 <1>                0.0000
     29 H29        -28.7011   2.4679  16.6289 H              1 <1>                0.0000
     30 H30        -30.3066   0.3878  17.2252 H              1 <1>                0.0000
     31 H31        -31.9736   4.1837  16.7708 H              1 <1>                0.0000
     32 ****       -29.4450   5.3183  19.3560 LP             1 <1>                0.0000
     33 ****       -30.7663   4.3575  18.7806 LP             1 <1>                0.0000
     34 ****       -32.8085   0.1215  16.8882 LP             1 <1>                0.0000
     35 ****       -33.8321   2.5008  16.6063 LP             1 <1>                0.0000
@<TRIPOS>BOND
    1    1    2 2     
    2    2    3 1     
    3    2   10 am    
    4    3    4 1     
    5    3   16 1     
    6    3   17 1     
    7    4    9 1     
    8    4    5 1     
    9    4   18 1     
   10    5    6 1     
   11    5   19 1     
   12    5   20 1     
   13    6    7 1     
   14    6   21 1     
   15    6   22 1     
   16    7    8 1     
   17    7   23 1     
   18    7   24 1     
   19    8    9 1     
   20    8   25 1     
   21    8   26 1     
   22    9   27 1     
   23    9   28 1     
   24   10   11 1     
   25   10   29 1     
   26   11   15 1     
   27   11   12 1     
   28   12   13 2     
   29   12   30 1     
   30   13   14 1     
   31   14   15 2     
   32   15   31 1     
   33    1   32 1     
   34    1   33 1     
   35   13   34 1     
   36   14   35 1     
@<TRIPOS>SUBSTRUCTURE
      1 ****           1
@<TRIPOS>SET
LONE_PAIRS      STATIC     ATOMS    <user>   **** ""
4 32 33 34 35
DONOR_HYDROGENS      STATIC     ATOMS    <user>   **** ""
1 29
ATOM$BLUE        STATIC     ATOMS    COLORGROUP SYSTEM
4 32 33 34 35
ATOM$RED        STATIC     ATOMS    COLORGROUP SYSTEM
1 29
@<TRIPOS>COMMENT
> <Gold.Version>
5.7.1

> <Gold.Id.Protein>
5enj_superposed_on_apo.pdb|5enj_compet_protein|mol2

> <Gold.Protein.RotatedTorsions>
[ 1755  763  762  760 ] final -153.58 input   60.00 | X-H torsion
[ 1702  715  714  713 ] final -117.47 input   60.00 | X-H torsion
[ 1691  706  705  702 ] final  -26.23 input   60.00 | X-H torsion

> <Gold.Protein.ActiveResidues>
 SER1390 LYS1393 ALA1394 TYR1395 THR1396 PRO1397 SER1398 LYS1399 ARG1400 TYR1404
 LEU1408

> <Gold.Protein.RotatedAtoms>
  -32.0970    9.1938   25.8533 H   0  0  0  0  0  0  0  0  0  0  0  0  # atno 1691 bound_to 706 
  -31.3601    4.2298   19.5679 H   0  0  0  0  0  0  0  0  0  0  0  0  # atno 1702 bound_to 715 
  -32.3237    4.3271   20.9130 H   0  0  0  0  0  0  0  0  0  0  0  0  # atno 1703 bound_to 715 
  -32.6913    3.2520   19.7062 H   0  0  0  0  0  0  0  0  0  0  0  0  # atno 1704 bound_to 715 
  -29.7086    6.2278   18.9363 H   0  0  0  0  0  0  0  0  0  0  0  0  # atno 1755 bound_to 763 
  -29.3019    7.2023   17.6981 LP  0  0  0  0  0  0  0  0  0  0  0  0  # atno 2014 bound_to 763 
  -30.7916    7.2972   18.3604 LP  0  0  0  0  0  0  0  0  0  0  0  0  # atno 2015 bound_to 763 

> <Gold.Score>
     Score         DG    S(hbond)    S(metal)    S(lipo)     H(rot)  DE(clash)    DE(int)     intcor
     14.40     -14.79       1.91        0.00      56.56       1.45       0.21       0.18       0.44

> <Gold.Chemscore.Fitness>
14.3985

> <Gold.Chemscore.DG>
-14.7873

> <Gold.Chemscore.ZeroCoef>
-5.4800

> <Gold.Chemscore.Hbond>
1.9139

> <Gold.Chemscore.Metal>
0.0000

> <Gold.Chemscore.Lipo>
56.5619

> <Gold.Chemscore.Internal_Hbond>
0.0000

> <Gold.Chemscore.DEClash>
0.2056

> <Gold.Chemscore.DEInternal>
0.1833

> <Gold.Chemscore.Rot>
1.4464

> <Gold.Chemscore.Internal.Correction>
0.4358

> <Gold.Chemscore.Hbonds>
donor molecule, donor type, donor heavy atom, donor atom, acceptor molecule, acceptor atom, score
      P1  H   763  1755       L1     1  0.91
      P1  H   715  1702       L1     1  1.00

> <Gold.Chemscore.Hbond.Weighted>
-6.3924

> <Gold.Chemscore.Metal.Weighted>
-0.0000

> <Gold.Chemscore.Lipo.Weighted>
-6.6177

> <Gold.Chemscore.Internal_Hbond.Weighted>
0.0000

> <Gold.Chemscore.DEClash.Weighted>
0.2056

> <Gold.Chemscore.DEInternal.Weighted>
0.1833

> <Gold.Chemscore.Rot.Weighted>
3.7029

> <Gold.Chemscore.Internal.Correction.Weighted>
0.4358

