#       Name:                F740-652513F6AB38F0A6-652513F6AB38F0A6-NMX
#       Creating user name   iorga
#       Creation time:       Wed Nov 27 13:35:30 2019


#       File generated by GOLD software.
#

@<TRIPOS>MOLECULE
F740-652513F6AB38F0A6-652513F6AB38F0A6-NMX|ligands_smiles_3D-hash|mol2|761|dock4
    32    34     1
SMALL
NO_CHARGES


@<TRIPOS>ATOM
      1 O1         -16.6534  16.9846  27.3370 O.2            1 <1>                0.0000
      2 C2         -17.0438  15.8300  27.1606 C.2            1 <1>                0.0000
      3 N3         -17.2448  15.2893  25.9484 N.am           1 <1>                0.0000
      4 C4         -17.7206  13.9676  25.6973 C.3            1 <1>                0.0000
      5 C5         -17.8316  13.5230  24.2548 C.3            1 <1>                0.0000
      6 C6         -19.0772  13.8234  25.0420 C.3            1 <1>                0.0000
      7 C7         -17.3922  14.9489  28.3270 C.ar           1 <1>                0.0000
      8 C8         -17.2005  13.5433  28.2294 C.ar           1 <1>                0.0000
      9 C9         -17.5365  12.6849  29.3009 C.ar           1 <1>                0.0000
     10 C10        -18.0732  13.2651  30.4606 C.ar           1 <1>                0.0000
     11 O11        -18.4720  12.6601  31.6083 O.3            1 <1>                0.0000
     12 C12        -18.9347  13.6894  32.4437 C.3            1 <1>                0.0000
     13 O13        -18.8051  14.9179  31.7755 O.3            1 <1>                0.0000
     14 C14        -18.2732  14.6256  30.5614 C.ar           1 <1>                0.0000
     15 C15        -17.9478  15.4999  29.5118 C.ar           1 <1>                0.0000
     16 H16        -17.0396  15.8590  25.1405 H              1 <1>                0.0000
     17 H17        -17.4513  13.1941  26.4154 H              1 <1>                0.0000
     18 H18        -17.5457  14.2312  23.4792 H              1 <1>                0.0000
     19 H19        -17.6168  12.4795  24.0334 H              1 <1>                0.0000
     20 H20        -19.6942  12.9807  25.3469 H              1 <1>                0.0000
     21 H21        -19.6215  14.7323  24.7919 H              1 <1>                0.0000
     22 H22        -16.7885  13.1132  27.3277 H              1 <1>                0.0000
     23 H23        -17.3874  11.6177  29.2294 H              1 <1>                0.0000
     24 H24        -19.9828  13.5165  32.6902 H              1 <1>                0.0000
     25 H25        -18.3456  13.7080  33.3612 H              1 <1>                0.0000
     26 H26        -18.1261  16.5601  29.6181 H              1 <1>                0.0000
     27 ****       -16.4678  17.5751  26.5517 LP             1 <1>                0.0000
     28 ****       -16.5221  17.3316  28.2656 LP             1 <1>                0.0000
     29 ****       -17.7037  12.1837  32.0358 LP             1 <1>                0.0000
     30 ****       -19.2062  12.0075  31.4208 LP             1 <1>                0.0000
     31 ****       -18.1975  15.5281  32.2838 LP             1 <1>                0.0000
     32 ****       -19.6996  15.3517  31.6682 LP             1 <1>                0.0000
@<TRIPOS>BOND
    1    1    2 2     
    2    2    3 am    
    3    2    7 1     
    4    3    4 1     
    5    3   16 1     
    6    4    6 1     
    7    4    5 1     
    8    4   17 1     
    9    5    6 1     
   10    5   18 1     
   11    5   19 1     
   12    6   20 1     
   13    6   21 1     
   14    7   15 ar    
   15    7    8 ar    
   16    8    9 ar    
   17    8   22 1     
   18    9   10 ar    
   19    9   23 1     
   20   10   14 ar    
   21   10   11 1     
   22   11   12 1     
   23   12   13 1     
   24   12   24 1     
   25   12   25 1     
   26   13   14 1     
   27   14   15 ar    
   28   15   26 1     
   29    1   27 1     
   30    1   28 1     
   31   11   29 1     
   32   11   30 1     
   33   13   31 1     
   34   13   32 1     
@<TRIPOS>SUBSTRUCTURE
      1 ****           1
@<TRIPOS>SET
LONE_PAIRS      STATIC     ATOMS    <user>   **** ""
6 27 28 29 30 31 32
DONOR_HYDROGENS      STATIC     ATOMS    <user>   **** ""
1 16
ATOM$BLUE        STATIC     ATOMS    COLORGROUP SYSTEM
6 27 28 29 30 31 32
ATOM$RED        STATIC     ATOMS    COLORGROUP SYSTEM
1 16
@<TRIPOS>COMMENT
> <Gold.Version>
5.7.1

> <Gold.Id.Protein>
5ENC|5ENC_protein|mol2

> <Gold.Protein.RotatedTorsions>
[ 1501  701  700  697 ] final  -97.13 input   60.00 | X-H torsion
[ 1497  695  694  692 ] final  141.12 input   60.00 | X-H torsion
[ 1251  358  357  355 ] final   -7.88 input   60.00 | X-H torsion
[ 1470  669  668  665 ] final   35.76 input   60.00 | X-H torsion

> <Gold.Protein.ActiveResidues>
 PRO28   PHE29   GLN31   PRO32   VAL33   TYR38   TYR41   PRO48   MET49   ASP50  
 ILE76   ASN79   SER80   TYR83   THR84   ILE91  

> <Gold.Protein.RotatedAtoms>
  -16.3798    9.4503   24.7099 H   0  0  0  0  0  0  0  0  0  0  0  0  # atno 1251 bound_to 358 
  -21.6967   11.0065   22.8766 H   0  0  0  0  0  0  0  0  0  0  0  0  # atno 1470 bound_to 669 
  -18.8441   10.7741   32.1639 H   0  0  0  0  0  0  0  0  0  0  0  0  # atno 1497 bound_to 695 
  -23.3842   11.2236   27.1380 H   0  0  0  0  0  0  0  0  0  0  0  0  # atno 1501 bound_to 701 
  -22.4496   11.3534   25.8122 LP  0  0  0  0  0  0  0  0  0  0  0  0  # atno 2046 bound_to 701 
  -22.4160    9.9884   26.7079 LP  0  0  0  0  0  0  0  0  0  0  0  0  # atno 2047 bound_to 701 
  -18.3678    9.2721   32.5704 LP  0  0  0  0  0  0  0  0  0  0  0  0  # atno 2052 bound_to 695 
  -19.9476    9.6789   32.6446 LP  0  0  0  0  0  0  0  0  0  0  0  0  # atno 2053 bound_to 695 
  -15.0378    8.5752   24.4248 LP  0  0  0  0  0  0  0  0  0  0  0  0  # atno 2056 bound_to 358 
  -14.9631   10.2064   24.4467 LP  0  0  0  0  0  0  0  0  0  0  0  0  # atno 2057 bound_to 358 

> <Gold.Protein.RotatedWaterAtoms>
  -17.7040   10.2320   24.0390 O.3 0  0  0  0  0  0  0  0  0  0  0  0  # atno 1    bound_to 2    3    AM1 ON 
  -17.6181   10.8451   23.2626 H   0  0  0  0  0  0  0  0  0  0  0  0  # atno 2    bound_to 1    AM1 ON 
  -18.6274   10.2836   24.4009 H   0  0  0  0  0  0  0  0  0  0  0  0  # atno 3    bound_to 1    AM1 ON 
  -17.0523   10.4996   24.7487 LP  0  0  0  0  0  0  0  0  0  0  0  0  # atno 4    bound_to 1    AM1 ON 
  -17.5124    9.2951   23.7467 LP  0  0  0  0  0  0  0  0  0  0  0  0  # atno 5    bound_to 1    AM1 ON 
  -13.7450   10.2720   23.0540 O.3 0  0  0  0  0  0  0  0  0  0  0  0  # atno 1    bound_to 2    3    AM2 ON 
  -14.3769   10.4264   23.8042 H   0  0  0  0  0  0  0  0  0  0  0  0  # atno 2    bound_to 1    AM2 ON 
  -13.4967   11.1427   22.6459 H   0  0  0  0  0  0  0  0  0  0  0  0  # atno 3    bound_to 1    AM2 ON 
  -14.1808    9.6931   22.3648 LP  0  0  0  0  0  0  0  0  0  0  0  0  # atno 4    bound_to 1    AM2 ON 
  -12.9229    9.8188   23.3985 LP  0  0  0  0  0  0  0  0  0  0  0  0  # atno 5    bound_to 1    AM2 ON 
  -21.1690   11.6250   24.3940 O.3 0  0  0  0  0  0  0  0  0  0  0  0  # atno 1    bound_to 2    3    AM3 ON 
  -21.5605   11.5664   25.3047 H   0  0  0  0  0  0  0  0  0  0  0  0  # atno 2    bound_to 1    AM3 ON 
  -20.3128   12.1266   24.4335 H   0  0  0  0  0  0  0  0  0  0  0  0  # atno 3    bound_to 1    AM3 ON 
  -21.8061   12.1002   23.7872 LP  0  0  0  0  0  0  0  0  0  0  0  0  # atno 4    bound_to 1    AM3 ON 
  -20.9997   10.7037   24.0440 LP  0  0  0  0  0  0  0  0  0  0  0  0  # atno 5    bound_to 1    AM3 ON 
  -14.6550   15.1580   23.4130 O.3 0  0  0  0  0  0  0  0  0  0  0  0  # atno 1    bound_to 2    3    AM4 ON 
  -15.3583   15.8569   23.4678 H   0  0  0  0  0  0  0  0  0  0  0  0  # atno 2    bound_to 1    AM4 ON 
  -13.7609   15.5800   23.5070 H   0  0  0  0  0  0  0  0  0  0  0  0  # atno 3    bound_to 1    AM4 ON 
  -14.7136   14.6948   22.5287 LP  0  0  0  0  0  0  0  0  0  0  0  0  # atno 4    bound_to 1    AM4 ON 
  -14.7884   14.4925   24.1474 LP  0  0  0  0  0  0  0  0  0  0  0  0  # atno 5    bound_to 1    AM4 ON 
  -23.6820   12.7820   28.0340 O.3 0  0  0  0  0  0  0  0  0  0  0  0  # atno 1    bound_to 2    3    AM5 ON 
  -23.0367   13.5346   28.0909 H   0  0  0  0  0  0  0  0  0  0  0  0  # atno 2    bound_to 1    AM5 ON 
  -24.4762   12.9839   28.5950 H   0  0  0  0  0  0  0  0  0  0  0  0  # atno 3    bound_to 1    AM5 ON 
  -23.2464   11.9438   28.3622 LP  0  0  0  0  0  0  0  0  0  0  0  0  # atno 4    bound_to 1    AM5 ON 
  -23.9678   12.6590   27.0836 LP  0  0  0  0  0  0  0  0  0  0  0  0  # atno 5    bound_to 1    AM5 ON 
  -16.9520   11.2350   21.5950 O.3 0  0  0  0  0  0  0  0  0  0  0  0  # atno 1    bound_to 2    3    AM6 ON 
  -16.9595   10.5652   20.8620 H   0  0  0  0  0  0  0  0  0  0  0  0  # atno 2    bound_to 1    AM6 ON 
  -16.2315   11.8983   21.4299 H   0  0  0  0  0  0  0  0  0  0  0  0  # atno 3    bound_to 1    AM6 ON 
  -16.7869   10.7735   22.4666 LP  0  0  0  0  0  0  0  0  0  0  0  0  # atno 4    bound_to 1    AM6 ON 
  -17.8350   11.7032   21.6278 LP  0  0  0  0  0  0  0  0  0  0  0  0  # atno 5    bound_to 1    AM6 ON 
  -14.9200   12.9840   21.7870 O.3 0  0  0  0  0  0  0  0  0  0  0  0  # atno 1    bound_to 2    3    AM7 ON 
  -14.9237   13.6157   22.5531 H   0  0  0  0  0  0  0  0  0  0  0  0  # atno 2    bound_to 1    AM7 ON 
  -13.9903   12.6820   21.6115 H   0  0  0  0  0  0  0  0  0  0  0  0  # atno 3    bound_to 1    AM7 ON 
  -15.2803   13.4428   20.9748 LP  0  0  0  0  0  0  0  0  0  0  0  0  # atno 4    bound_to 1    AM7 ON 
  -15.4920   12.1931   22.0043 LP  0  0  0  0  0  0  0  0  0  0  0  0  # atno 5    bound_to 1    AM7 ON 

> <Gold.Score>
     Score         DG    S(hbond)    S(metal)    S(lipo)     H(rot)  DE(clash)    DE(int)    S(bar)      intcor
     46.59     -49.30      13.72        0.00     124.31       1.00       0.64       2.07      14.00       1.14

> <Gold.Chemscore.Fitness>
46.5918

> <Gold.Chemscore.DG>
-49.3025

> <Gold.Chemscore.ZeroCoef>
-5.4800

> <Gold.Chemscore.Hbond>
13.7239

> <Gold.Chemscore.Metal>
0.0000

> <Gold.Chemscore.Lipo>
124.3127

> <Gold.Chemscore.Internal_Hbond>
0.0000

> <Gold.Chemscore.DEClash>
0.6366

> <Gold.Chemscore.DEInternal>
2.0741

> <Gold.Chemscore.Rot>
1.0000

> <Gold.Chemscore.Internal.Correction>
1.1439

> <Gold.Chemscore.SBar>
14.0000

> <Gold.Chemscore.Hbonds>
donor molecule, donor type, donor heavy atom, donor atom, acceptor molecule, acceptor atom, score
      L1  H     3    16       P1   238  0.97
     AM1  H     1     2      AM6     1  0.94
     AM2  H     1     2       P1   358  0.66
     AM2  H     1     3       P1   419  0.55
     AM3  H     1     2       P1   701  0.74
     AM4  H     1     2       P1   238  1.00
     AM4  H     1     3       P1   267  1.00
     AM6  H     1     2       P1   634  1.00
     AM6  H     1     3      AM7     1  0.95
     AM7  H     1     2      AM4     1  0.97
     AM7  H     1     3       P1   419  0.98
      P1  H   701  1501      AM5     1  0.95
      P1  H   695  1497       L1    11  0.95
      P1  H   358  1251      AM1     1  0.91
      P1  H   669  1470      AM3     1  0.93
      P1  H   663  1465      AM2     1  0.23

> <Gold.Chemscore.Hbond.Weighted>
-45.8379

> <Gold.Chemscore.Metal.Weighted>
-0.0000

> <Gold.Chemscore.Lipo.Weighted>
-14.5446

> <Gold.Chemscore.Internal_Hbond.Weighted>
0.0000

> <Gold.Chemscore.DEClash.Weighted>
0.6366

> <Gold.Chemscore.DEInternal.Weighted>
2.0741

> <Gold.Chemscore.Rot.Weighted>
2.5600

> <Gold.Chemscore.Internal.Correction.Weighted>
1.1439

