#       Name:                F393-924A34C23AB47013-924A34C23AB47013-NMX
#       Creating user name   iorga
#       Creation time:       Wed Nov 27 18:42:03 2019


#       File generated by GOLD software.
#

@<TRIPOS>MOLECULE
F393-924A34C23AB47013-924A34C23AB47013-NMX|ligands_smiles_3D-hash|mol2|405|dock21
    28    28     1
SMALL
NO_CHARGES


@<TRIPOS>ATOM
      1 C1         -17.6740  13.6590  23.5179 C.3            1 <1>                0.0000
      2 C2         -18.7906  14.1708  24.4311 C.3            1 <1>                0.0000
      3 O3         -18.3182  14.2161  25.7678 O.3            1 <1>                0.0000
      4 C4         -18.3545  13.1084  26.5345 C.2            1 <1>                0.0000
      5 O5         -18.8388  12.0384  26.1605 O.2            1 <1>                0.0000
      6 N6         -17.7800  13.3494  27.7887 N.am           1 <1>                0.0000
      7 C7         -17.6073  12.3592  28.8580 C.3            1 <1>                0.0000
      8 C8         -18.2356  12.9278  30.1426 C.3            1 <1>                0.0000
      9 O9         -17.6414  14.1877  30.4550 O.3            1 <1>                0.0000
     10 C10        -17.7976  15.1529  29.4165 C.3            1 <1>                0.0000
     11 C11        -17.1585  14.6294  28.1179 C.3            1 <1>                0.0000
     12 H12        -18.0101  13.6161  22.4817 H              1 <1>                0.0000
     13 H13        -16.8029  14.3131  23.5600 H              1 <1>                0.0000
     14 H14        -17.3570  12.6573  23.8086 H              1 <1>                0.0000
     15 H15        -19.6592  13.5137  24.3684 H              1 <1>                0.0000
     16 H16        -19.1051  15.1658  24.1127 H              1 <1>                0.0000
     17 H17        -18.1176  11.4388  28.5715 H              1 <1>                0.0000
     18 H18        -16.5721  12.0784  29.0487 H              1 <1>                0.0000
     19 H19        -18.1062  12.2367  30.9769 H              1 <1>                0.0000
     20 H20        -19.3080  13.0689  30.0077 H              1 <1>                0.0000
     21 H21        -17.3451  16.0992  29.7173 H              1 <1>                0.0000
     22 H22        -18.8607  15.3407  29.2650 H              1 <1>                0.0000
     23 H23        -16.0772  14.5528  28.2402 H              1 <1>                0.0000
     24 H24        -17.3279  15.3330  27.3019 H              1 <1>                0.0000
     25 ****       -19.2323  11.9607  25.2445 LP             1 <1>                0.0000
     26 ****       -18.8382  11.2481  26.7732 LP             1 <1>                0.0000
     27 ****       -16.6642  14.0482  30.6149 LP             1 <1>                0.0000
     28 ****       -18.0678  14.5437  31.2865 LP             1 <1>                0.0000
@<TRIPOS>BOND
    1    1    2 1     
    2    1   12 1     
    3    1   13 1     
    4    1   14 1     
    5    2    3 1     
    6    2   15 1     
    7    2   16 1     
    8    3    4 1     
    9    4    5 2     
   10    4    6 am    
   11   11    6 1     
   12    6    7 1     
   13    7    8 1     
   14    7   17 1     
   15    7   18 1     
   16    8    9 1     
   17    8   19 1     
   18    8   20 1     
   19    9   10 1     
   20   10   11 1     
   21   10   21 1     
   22   10   22 1     
   23   11   23 1     
   24   11   24 1     
   25    5   25 1     
   26    5   26 1     
   27    9   27 1     
   28    9   28 1     
@<TRIPOS>SUBSTRUCTURE
      1 ****           1
@<TRIPOS>SET
LONE_PAIRS      STATIC     ATOMS    <user>   **** ""
4 25 26 27 28
ATOM$BLUE        STATIC     ATOMS    COLORGROUP SYSTEM
4 25 26 27 28
@<TRIPOS>COMMENT
> <Gold.Version>
5.7.1

> <Gold.Id.Protein>
5ENC|5ENC_protein|mol2

> <Gold.Protein.RotatedTorsions>
[ 1501  701  700  697 ] final  -98.31 input   60.00 | X-H torsion
[ 1497  695  694  692 ] final   -3.45 input   60.00 | X-H torsion
[ 1251  358  357  355 ] final  -23.51 input   60.00 | X-H torsion
[ 1470  669  668  665 ] final   66.07 input   60.00 | X-H torsion

> <Gold.Protein.ActiveResidues>
 PRO28   PHE29   GLN31   PRO32   VAL33   TYR38   TYR41   PRO48   MET49   ASP50  
 ILE76   ASN79   SER80   TYR83   THR84   ILE91  

> <Gold.Protein.RotatedAtoms>
  -16.3574    9.1968   24.6998 H   0  0  0  0  0  0  0  0  0  0  0  0  # atno 1251 bound_to 358 
  -21.4770   11.4274   22.7576 H   0  0  0  0  0  0  0  0  0  0  0  0  # atno 1470 bound_to 669 
  -18.6979    9.0707   32.6721 H   0  0  0  0  0  0  0  0  0  0  0  0  # atno 1497 bound_to 695 
  -23.3845   11.2396   27.1274 H   0  0  0  0  0  0  0  0  0  0  0  0  # atno 1501 bound_to 701 
  -22.4382   11.3387   25.8072 LP  0  0  0  0  0  0  0  0  0  0  0  0  # atno 2046 bound_to 701 
  -22.4272    9.9871   26.7236 LP  0  0  0  0  0  0  0  0  0  0  0  0  # atno 2047 bound_to 701 
  -19.9805   10.0622   32.5303 LP  0  0  0  0  0  0  0  0  0  0  0  0  # atno 2052 bound_to 695 
  -18.4822   10.6044   32.1729 LP  0  0  0  0  0  0  0  0  0  0  0  0  # atno 2053 bound_to 695 
  -14.8320    8.7237   24.3877 LP  0  0  0  0  0  0  0  0  0  0  0  0  # atno 2056 bound_to 358 
  -15.1914   10.3131   24.4939 LP  0  0  0  0  0  0  0  0  0  0  0  0  # atno 2057 bound_to 358 

> <Gold.Protein.RotatedWaterAtoms>
  -17.7040   10.2320   24.0390 O.3 0  0  0  0  0  0  0  0  0  0  0  0  # atno 1    bound_to 2    3    AM1 ON 
  -18.0752   10.8231   24.7453 H   0  0  0  0  0  0  0  0  0  0  0  0  # atno 2    bound_to 1    AM1 ON 
  -17.4743   10.7751   23.2399 H   0  0  0  0  0  0  0  0  0  0  0  0  # atno 3    bound_to 1    AM1 ON 
  -18.3844    9.5429   23.7894 LP  0  0  0  0  0  0  0  0  0  0  0  0  # atno 4    bound_to 1    AM1 ON 
  -16.8811    9.7790   24.3820 LP  0  0  0  0  0  0  0  0  0  0  0  0  # atno 5    bound_to 1    AM1 ON 
  -13.7450   10.2720   23.0540 O.3 0  0  0  0  0  0  0  0  0  0  0  0  # atno 1    bound_to 2    3    AM2 ON 
  -14.4858   10.3726   23.7076 H   0  0  0  0  0  0  0  0  0  0  0  0  # atno 2    bound_to 1    AM2 ON 
  -13.5921   11.1373   22.5912 H   0  0  0  0  0  0  0  0  0  0  0  0  # atno 3    bound_to 1    AM2 ON 
  -13.9865    9.5724   22.3815 LP  0  0  0  0  0  0  0  0  0  0  0  0  # atno 4    bound_to 1    AM2 ON 
  -12.9115    9.9990   23.5343 LP  0  0  0  0  0  0  0  0  0  0  0  0  # atno 5    bound_to 1    AM2 ON 
  -21.1690   11.6250   24.3940 O.3 0  0  0  0  0  0  0  0  0  0  0  0  # atno 1    bound_to 2    3    AM3 ON 
  -20.2295   11.6935   24.7081 H   0  0  0  0  0  0  0  0  0  0  0  0  # atno 2    bound_to 1    AM3 ON 
  -21.7721   11.5151   25.1754 H   0  0  0  0  0  0  0  0  0  0  0  0  # atno 3    bound_to 1    AM3 ON 
  -21.2611   10.8348   23.7881 LP  0  0  0  0  0  0  0  0  0  0  0  0  # atno 4    bound_to 1    AM3 ON 
  -21.4158   12.4568   23.8969 LP  0  0  0  0  0  0  0  0  0  0  0  0  # atno 5    bound_to 1    AM3 ON 
  -14.6550   15.1580   23.4130 O.3 0  0  0  0  0  0  0  0  0  0  0  0  # atno 1    bound_to 2    3    AM4 ON 
  -13.7920   15.6005   23.6261 H   0  0  0  0  0  0  0  0  0  0  0  0  # atno 2    bound_to 1    AM4 ON 
  -15.3989   15.8027   23.5443 H   0  0  0  0  0  0  0  0  0  0  0  0  # atno 3    bound_to 1    AM4 ON 
  -14.7847   14.3718   24.0173 LP  0  0  0  0  0  0  0  0  0  0  0  0  # atno 4    bound_to 1    AM4 ON 
  -14.6454   14.8493   22.4619 LP  0  0  0  0  0  0  0  0  0  0  0  0  # atno 5    bound_to 1    AM4 ON 
  -23.6820   12.7820   28.0340 O.3 0  0  0  0  0  0  0  0  0  0  0  0  # atno 1    bound_to 2    3    AM5 ON 
  -23.7942   13.6720   27.6082 H   0  0  0  0  0  0  0  0  0  0  0  0  # atno 2    bound_to 1    AM5 ON 
  -23.9606   12.8329   28.9859 H   0  0  0  0  0  0  0  0  0  0  0  0  # atno 3    bound_to 1    AM5 ON 
  -22.7222   12.5062   27.9819 LP  0  0  0  0  0  0  0  0  0  0  0  0  # atno 4    bound_to 1    AM5 ON 
  -24.2482   12.1102   27.5564 LP  0  0  0  0  0  0  0  0  0  0  0  0  # atno 5    bound_to 1    AM5 ON 
  -16.9520   11.2350   21.5950 O.3 0  0  0  0  0  0  0  0  0  0  0  0  # atno 1    bound_to 2    3    AM6 ON 
  -16.3200   11.9887   21.4590 H   0  0  0  0  0  0  0  0  0  0  0  0  # atno 2    bound_to 1    AM6 ON 
  -17.1170   10.7808   20.7274 H   0  0  0  0  0  0  0  0  0  0  0  0  # atno 3    bound_to 1    AM6 ON 
  -17.8156   11.5854   21.9574 LP  0  0  0  0  0  0  0  0  0  0  0  0  # atno 4    bound_to 1    AM6 ON 
  -16.5586   10.5829   22.2431 LP  0  0  0  0  0  0  0  0  0  0  0  0  # atno 5    bound_to 1    AM6 ON 
  -14.9200   12.9840   21.7870 O.3 0  0  0  0  0  0  0  0  0  0  0  0  # atno 1    bound_to 2    3    AM7 ON 
  -14.8308   13.7555   22.4057 H   0  0  0  0  0  0  0  0  0  0  0  0  # atno 2    bound_to 1    AM7 ON 
  -14.0259   12.7420   21.4286 H   0  0  0  0  0  0  0  0  0  0  0  0  # atno 3    bound_to 1    AM7 ON 
  -15.5264   13.2312   21.0312 LP  0  0  0  0  0  0  0  0  0  0  0  0  # atno 4    bound_to 1    AM7 ON 
  -15.3037   12.2035   22.2806 LP  0  0  0  0  0  0  0  0  0  0  0  0  # atno 5    bound_to 1    AM7 ON 

> <Gold.Score>
     Score         DG    S(hbond)    S(metal)    S(lipo)     H(rot)  DE(clash)    DE(int)    S(bar)      intcor
     42.65     -43.31      13.39        0.00      86.39       1.17       0.52       0.14      14.00       0.35

> <Gold.Chemscore.Fitness>
42.6471

> <Gold.Chemscore.DG>
-43.3071

> <Gold.Chemscore.ZeroCoef>
-5.4800

> <Gold.Chemscore.Hbond>
13.3856

> <Gold.Chemscore.Metal>
0.0000

> <Gold.Chemscore.Lipo>
86.3891

> <Gold.Chemscore.Internal_Hbond>
0.0000

> <Gold.Chemscore.DEClash>
0.5179

> <Gold.Chemscore.DEInternal>
0.1421

> <Gold.Chemscore.Rot>
1.1673

> <Gold.Chemscore.Internal.Correction>
0.3526

> <Gold.Chemscore.SBar>
14.0000

> <Gold.Chemscore.Hbonds>
donor molecule, donor type, donor heavy atom, donor atom, acceptor molecule, acceptor atom, score
     AM1  H     1     2       L1     5  0.99
     AM1  H     1     3      AM6     1  0.98
     AM2  H     1     2       P1   358  0.78
     AM2  H     1     3       P1   419  0.58
     AM3  H     1     2       L1     5  0.95
     AM3  H     1     3       P1   701  0.59
     AM4  H     1     2       P1   267  1.00
     AM4  H     1     3       P1   238  1.00
     AM6  H     1     2      AM7     1  0.97
     AM6  H     1     3       P1   634  1.00
     AM7  H     1     2      AM4     1  0.99
     AM7  H     1     3       P1   419  1.00
      P1  H   701  1501      AM5     1  0.96
      P1  H   358  1251      AM1     1  0.45
      P1  H   669  1470      AM3     1  0.96
      P1  H   663  1465      AM2     1  0.20

> <Gold.Chemscore.Hbond.Weighted>
-44.7078

> <Gold.Chemscore.Metal.Weighted>
-0.0000

> <Gold.Chemscore.Lipo.Weighted>
-10.1075

> <Gold.Chemscore.Internal_Hbond.Weighted>
0.0000

> <Gold.Chemscore.DEClash.Weighted>
0.5179

> <Gold.Chemscore.DEInternal.Weighted>
0.1421

> <Gold.Chemscore.Rot.Weighted>
2.9882

> <Gold.Chemscore.Internal.Correction.Weighted>
0.3526

