#       Name:                F619-F6A7EE1603CD4B26-BBB15CE020980C46-NMX
#       Creating user name   iorga
#       Creation time:       Mon Dec  9 17:59:41 2019


#       File generated by GOLD software.
#

@<TRIPOS>MOLECULE
F619-F6A7EE1603CD4B26-BBB15CE020980C46-NMX|ligands_smiles_3D-hash-site2|mol2|6|dock32
    26    26     1
SMALL
NO_CHARGES


@<TRIPOS>ATOM
      1 C1         -26.2488  16.9924   7.7762 C.3            1 <1>                0.0000
      2 C2         -26.7299  17.8267   8.9760 C.3            1 <1>                0.0000
      3 H3         -27.1039  18.7790   8.5969 H              1 <1>                0.0000
      4 C4         -27.8843  17.1155   9.7035 C.3            1 <1>                0.0000
      5 O5         -27.4288  15.9006  10.2605 O.3            1 <1>                0.0000
      6 N6         -25.6278  18.0712   9.9018 N.pl3          1 <1>                0.0000
      7 C7         -25.0040  19.3237  10.0036 C.ar           1 <1>                0.0000
      8 C8         -24.8589  21.5894   9.2823 C.ar           1 <1>                0.0000
      9 C9         -23.7939  21.8398  10.1703 C.ar           1 <1>                0.0000
     10 Cl10       -23.0697  23.4034  10.2468 Cl             1 <1>                0.0000
     11 C11        -23.3292  20.7950  10.9947 C.ar           1 <1>                0.0000
     12 C12        -23.9397  19.5262  10.9104 C.ar           1 <1>                0.0000
     13 F13        -23.5044  18.5118  11.6957 F              1 <1>                0.0000
     14 H14        -27.0585  16.8269   7.0650 H              1 <1>                0.0000
     15 H15        -25.4425  17.4894   7.2365 H              1 <1>                0.0000
     16 H16        -25.8823  16.0155   8.0936 H              1 <1>                0.0000
     17 H17        -28.7321  16.9363   9.0408 H              1 <1>                0.0000
     18 H18        -28.2476  17.7294  10.5285 H              1 <1>                0.0000
     19 H19        -26.5108  15.9896  10.4681 H              1 <1>                0.0000
     20 H20        -25.3305  17.3183  10.5062 H              1 <1>                0.0000
     21 H21        -25.2786  22.3287   8.6155 H              1 <1>                0.0000
     22 H22        -22.5142  20.9626  11.6834 H              1 <1>                0.0000
     23 N23        -25.4166  20.3596   9.2326 N.pl3          1 <1>                0.0000
     24 H24        -26.1867  20.2038   8.5819 H              1 <1>                0.0000
     25 ****       -27.5549  15.1595   9.6011 LP             1 <1>                0.0000
     26 ****       -27.9444  15.6974  11.0929 LP             1 <1>                0.0000
@<TRIPOS>BOND
    1    1    2 1     
    2    1   14 1     
    3    1   15 1     
    4    1   16 1     
    5    2    3 1     
    6    2    4 1     
    7    2    6 1     
    8    4    5 1     
    9    4   17 1     
   10    4   18 1     
   11    5   19 1     
   12    6    7 1     
   13    6   20 1     
   14    7   12 ar    
   15    7   23 ar    
   16    8    9 ar    
   17    8   21 1     
   18    8   23 ar    
   19    9   10 1     
   20    9   11 ar    
   21   11   12 ar    
   22   11   22 1     
   23   12   13 1     
   24   23   24 1     
   25    5   25 1     
   26    5   26 1     
@<TRIPOS>SUBSTRUCTURE
      1 ****           1
@<TRIPOS>SET
LONE_PAIRS      STATIC     ATOMS    <user>   **** ""
2 25 26
DONOR_HYDROGENS      STATIC     ATOMS    <user>   **** ""
3 19 20 24
ATOM$BLUE        STATIC     ATOMS    COLORGROUP SYSTEM
2 25 26
ATOM$RED        STATIC     ATOMS    COLORGROUP SYSTEM
3 19 20 24
@<TRIPOS>COMMENT
> <Gold.Version>
5.7.1

> <Gold.Id.Protein>
3MB3|3MB3_protein|mol2

> <Gold.Protein.ActiveResidues>
 LEU1331 ILE1332 GLN1334 CYS1335 GLU1336 ASP1337 ARG1409 LEU1410 ALA1412 PHE1413

> <Gold.Score>
     Score         DG    S(hbond)    S(metal)    S(lipo)     H(rot)  DE(clash)    DE(int)     intcor
     15.87     -16.16       1.89        0.00      78.37       1.88       0.14       0.15       0.00

> <Gold.Chemscore.Fitness>
15.8689

> <Gold.Chemscore.DG>
-16.1579

> <Gold.Chemscore.ZeroCoef>
-5.4800

> <Gold.Chemscore.Hbond>
1.8906

> <Gold.Chemscore.Metal>
0.0000

> <Gold.Chemscore.Lipo>
78.3695

> <Gold.Chemscore.Internal_Hbond>
0.0000

> <Gold.Chemscore.DEClash>
0.1377

> <Gold.Chemscore.DEInternal>
0.1512

> <Gold.Chemscore.Rot>
1.8773

> <Gold.Chemscore.Internal.Correction>
0.0024

> <Gold.Chemscore.Hbonds>
donor molecule, donor type, donor heavy atom, donor atom, acceptor molecule, acceptor atom, score
      L1  H     5    19       P1   777  0.91
      L1  H     6    20       P1   777  0.98

> <Gold.Chemscore.Hbond.Weighted>
-6.3145

> <Gold.Chemscore.Metal.Weighted>
-0.0000

> <Gold.Chemscore.Lipo.Weighted>
-9.1692

> <Gold.Chemscore.Internal_Hbond.Weighted>
0.0000

> <Gold.Chemscore.DEClash.Weighted>
0.1377

> <Gold.Chemscore.DEInternal.Weighted>
0.1512

> <Gold.Chemscore.Rot.Weighted>
4.8059

> <Gold.Chemscore.Internal.Correction.Weighted>
0.0024

