#       Name:                F13-90D6670F910465AF-90D6670F910465AF-NMX
#       Creating user name   iorga
#       Creation time:       Wed Nov 27 12:05:43 2019


#       File generated by GOLD software.
#

@<TRIPOS>MOLECULE
F13-90D6670F910465AF-90D6670F910465AF-NMX|ligands_smiles_3D-hash|mol2|13|dock42
    19    19     1
SMALL
NO_CHARGES


@<TRIPOS>ATOM
      1 Br1        -17.4434  12.4669  29.9067 Br             1 <1>                0.0000
      2 C2         -18.0030  12.7251  28.1069 C.2            1 <1>                0.0000
      3 C3         -17.9116  13.8738  27.3820 C.2            1 <1>                0.0000
      4 N4         -18.4435  13.5701  26.1437 N.pl3          1 <1>                0.0000
      5 C5         -18.5899  14.4410  24.9936 C.3            1 <1>                0.0000
      6 C6         -17.8808  13.8723  23.7564 C.3            1 <1>                0.0000
      7 O7         -16.5153  14.2282  23.7821 O.3            1 <1>                0.0000
      8 N8         -18.8618  12.2807  26.0657 N.2            1 <1>                0.0000
      9 C9         -18.5975  11.7597  27.2552 C.2            1 <1>                0.0000
     10 H10        -17.5272  14.8518  27.6310 H              1 <1>                0.0000
     11 H11        -18.1905  15.4243  25.2469 H              1 <1>                0.0000
     12 H12        -19.6541  14.5733  24.7936 H              1 <1>                0.0000
     13 H13        -17.9640  12.7854  23.7276 H              1 <1>                0.0000
     14 H14        -18.3313  14.2598  22.8420 H              1 <1>                0.0000
     15 H15        -16.4503  15.1711  23.7823 H              1 <1>                0.0000
     16 H16        -18.8403  10.7263  27.4538 H              1 <1>                0.0000
     17 ****       -16.0554  13.8587  22.9746 LP             1 <1>                0.0000
     18 ****       -16.0865  13.8605  24.6073 LP             1 <1>                0.0000
     19 ****       -19.2791  11.8232  25.2805 LP             1 <1>                0.0000
@<TRIPOS>BOND
    1    1    2 1     
    2    2    9 1     
    3    2    3 2     
    4    3    4 1     
    5    3   10 1     
    6    4    5 1     
    7    4    8 1     
    8    5    6 1     
    9    5   11 1     
   10    5   12 1     
   11    6    7 1     
   12    6   13 1     
   13    6   14 1     
   14    7   15 1     
   15    8    9 2     
   16    9   16 1     
   17    7   17 1     
   18    7   18 1     
   19    8   19 1     
@<TRIPOS>SUBSTRUCTURE
      1 ****           1
@<TRIPOS>SET
LONE_PAIRS      STATIC     ATOMS    <user>   **** ""
3 17 18 19
DONOR_HYDROGENS      STATIC     ATOMS    <user>   **** ""
1 15
ATOM$BLUE        STATIC     ATOMS    COLORGROUP SYSTEM
3 17 18 19
ATOM$RED        STATIC     ATOMS    COLORGROUP SYSTEM
1 15
@<TRIPOS>COMMENT
> <Gold.Version>
5.7.1

> <Gold.Id.Protein>
5ENC|5ENC_protein|mol2

> <Gold.Protein.RotatedTorsions>
[ 1501  701  700  697 ] final  -60.50 input   60.00 | X-H torsion
[ 1497  695  694  692 ] final   -6.42 input   60.00 | X-H torsion
[ 1251  358  357  355 ] final   -0.54 input   60.00 | X-H torsion
[ 1470  669  668  665 ] final   57.00 input   60.00 | X-H torsion

> <Gold.Protein.ActiveResidues>
 PRO28   PHE29   GLN31   PRO32   VAL33   TYR38   TYR41   PRO48   MET49   ASP50  
 ILE76   ASN79   SER80   TYR83   THR84   ILE91  

> <Gold.Protein.RotatedAtoms>
  -16.3668    9.5695   24.7100 H   0  0  0  0  0  0  0  0  0  0  0  0  # atno 1251 bound_to 358 
  -21.5297   11.3025   22.8171 H   0  0  0  0  0  0  0  0  0  0  0  0  # atno 1470 bound_to 669 
  -18.7429    9.0557   32.6824 H   0  0  0  0  0  0  0  0  0  0  0  0  # atno 1497 bound_to 695 
  -23.2480   10.6840   27.3289 H   0  0  0  0  0  0  0  0  0  0  0  0  # atno 1501 bound_to 701 
  -22.8435   11.6820   26.1088 LP  0  0  0  0  0  0  0  0  0  0  0  0  # atno 2046 bound_to 701 
  -22.1593   10.2034   26.2190 LP  0  0  0  0  0  0  0  0  0  0  0  0  # atno 2047 bound_to 701 
  -19.9728   10.1080   32.5151 LP  0  0  0  0  0  0  0  0  0  0  0  0  # atno 2052 bound_to 695 
  -18.4445   10.5737   32.1776 LP  0  0  0  0  0  0  0  0  0  0  0  0  # atno 2053 bound_to 695 
  -15.1463    8.5263   24.4449 LP  0  0  0  0  0  0  0  0  0  0  0  0  # atno 2056 bound_to 358 
  -14.8676   10.1352   24.4264 LP  0  0  0  0  0  0  0  0  0  0  0  0  # atno 2057 bound_to 358 

> <Gold.Protein.RotatedWaterAtoms>
  -17.7040   10.2320   24.0390 O.3 0  0  0  0  0  0  0  0  0  0  0  0  # atno 1    bound_to 2    3    AM1 ON 
  -17.6374   10.6467   23.1392 H   0  0  0  0  0  0  0  0  0  0  0  0  # atno 2    bound_to 1    AM1 ON 
  -18.6075    9.8364   24.1551 H   0  0  0  0  0  0  0  0  0  0  0  0  # atno 3    bound_to 1    AM1 ON 
  -17.5529   10.9295   24.7395 LP  0  0  0  0  0  0  0  0  0  0  0  0  # atno 4    bound_to 1    AM1 ON 
  -17.0123    9.5152   24.1277 LP  0  0  0  0  0  0  0  0  0  0  0  0  # atno 5    bound_to 1    AM1 ON 
  -13.7450   10.2720   23.0540 O.3 0  0  0  0  0  0  0  0  0  0  0  0  # atno 1    bound_to 2    3    AM2 ON 
  -14.2906   11.0849   22.8878 H   0  0  0  0  0  0  0  0  0  0  0  0  # atno 2    bound_to 1    AM2 ON 
  -14.1909    9.7085   23.7395 H   0  0  0  0  0  0  0  0  0  0  0  0  # atno 3    bound_to 1    AM2 ON 
  -12.8387   10.5399   23.3808 LP  0  0  0  0  0  0  0  0  0  0  0  0  # atno 4    bound_to 1    AM2 ON 
  -13.6529    9.7528   22.2043 LP  0  0  0  0  0  0  0  0  0  0  0  0  # atno 5    bound_to 1    AM2 ON 
  -21.1690   11.6250   24.3940 O.3 0  0  0  0  0  0  0  0  0  0  0  0  # atno 1    bound_to 2    3    AM3 ON 
  -20.2278   11.7188   24.6962 H   0  0  0  0  0  0  0  0  0  0  0  0  # atno 2    bound_to 1    AM3 ON 
  -21.7673   11.5755   25.1851 H   0  0  0  0  0  0  0  0  0  0  0  0  # atno 3    bound_to 1    AM3 ON 
  -21.2634   10.7901   23.8518 LP  0  0  0  0  0  0  0  0  0  0  0  0  # atno 4    bound_to 1    AM3 ON 
  -21.4200   12.4154   23.8352 LP  0  0  0  0  0  0  0  0  0  0  0  0  # atno 5    bound_to 1    AM3 ON 
  -14.6550   15.1580   23.4130 O.3 0  0  0  0  0  0  0  0  0  0  0  0  # atno 1    bound_to 2    3    AM4 ON 
  -15.4114   15.7737   23.5999 H   0  0  0  0  0  0  0  0  0  0  0  0  # atno 2    bound_to 1    AM4 ON 
  -13.7986   15.6086   23.6362 H   0  0  0  0  0  0  0  0  0  0  0  0  # atno 3    bound_to 1    AM4 ON 
  -14.6586   14.9100   22.4443 LP  0  0  0  0  0  0  0  0  0  0  0  0  # atno 4    bound_to 1    AM4 ON 
  -14.7521   14.3324   23.9688 LP  0  0  0  0  0  0  0  0  0  0  0  0  # atno 5    bound_to 1    AM4 ON 
  -23.6820   12.7820   28.0340 O.3 0  0  0  0  0  0  0  0  0  0  0  0  # atno 1    bound_to 2    3    AM5 OFF
  -23.4832   12.5732   27.0838 H   0  0  0  0  0  0  0  0  0  0  0  0  # atno 2    bound_to 1    AM5 OFF
  -24.4365   12.2168   28.3462 H   0  0  0  0  0  0  0  0  0  0  0  0  # atno 3    bound_to 1    AM5 OFF
  -23.9311   13.7468   28.1183 LP  0  0  0  0  0  0  0  0  0  0  0  0  # atno 4    bound_to 1    AM5 OFF
  -22.8733   12.5965   28.5922 LP  0  0  0  0  0  0  0  0  0  0  0  0  # atno 5    bound_to 1    AM5 OFF
  -16.9520   11.2350   21.5950 O.3 0  0  0  0  0  0  0  0  0  0  0  0  # atno 1    bound_to 2    3    AM6 ON 
  -17.2029   10.8906   20.6980 H   0  0  0  0  0  0  0  0  0  0  0  0  # atno 2    bound_to 1    AM6 ON 
  -16.3266   11.9997   21.4929 H   0  0  0  0  0  0  0  0  0  0  0  0  # atno 3    bound_to 1    AM6 ON 
  -16.5074   10.5083   22.1187 LP  0  0  0  0  0  0  0  0  0  0  0  0  # atno 4    bound_to 1    AM6 ON 
  -17.7737   11.5385   22.0773 LP  0  0  0  0  0  0  0  0  0  0  0  0  # atno 5    bound_to 1    AM6 ON 
  -14.9200   12.9840   21.7870 O.3 0  0  0  0  0  0  0  0  0  0  0  0  # atno 1    bound_to 2    3    AM7 ON 
  -14.0286   12.7500   21.4173 H   0  0  0  0  0  0  0  0  0  0  0  0  # atno 2    bound_to 1    AM7 ON 
  -14.8123   13.6560   22.5103 H   0  0  0  0  0  0  0  0  0  0  0  0  # atno 3    bound_to 1    AM7 ON 
  -15.3535   12.1624   22.1572 LP  0  0  0  0  0  0  0  0  0  0  0  0  # atno 4    bound_to 1    AM7 ON 
  -15.4926   13.3646   21.0609 LP  0  0  0  0  0  0  0  0  0  0  0  0  # atno 5    bound_to 1    AM7 ON 

> <Gold.Score>
     Score         DG    S(hbond)    S(metal)    S(lipo)     H(rot)  DE(clash)    DE(int)    S(bar)      intcor
     42.35     -43.80      13.19        0.00      91.73       1.74       1.31       0.14      12.00       0.00

> <Gold.Chemscore.Fitness>
42.3490

> <Gold.Chemscore.DG>
-43.8044

> <Gold.Chemscore.ZeroCoef>
-5.4800

> <Gold.Chemscore.Hbond>
13.1889

> <Gold.Chemscore.Metal>
0.0000

> <Gold.Chemscore.Lipo>
91.7263

> <Gold.Chemscore.Internal_Hbond>
0.0000

> <Gold.Chemscore.DEClash>
1.3129

> <Gold.Chemscore.DEInternal>
0.1425

> <Gold.Chemscore.Rot>
1.7416

> <Gold.Chemscore.Internal.Correction>
0.0000

> <Gold.Chemscore.SBar>
12.0000

> <Gold.Chemscore.Hbonds>
donor molecule, donor type, donor heavy atom, donor atom, acceptor molecule, acceptor atom, score
      L1  H     7    15       P1   238  1.00
     AM1  H     1     2      AM6     1  0.99
     AM2  H     1     3       P1   358  0.94
     AM3  H     1     2       L1     8  0.93
     AM3  H     1     3       P1   701  0.64
     AM4  H     1     2       P1   238  1.00
     AM4  H     1     3       P1   267  1.00
     AM6  H     1     2       P1   634  0.99
     AM6  H     1     3      AM7     1  0.98
     AM7  H     1     2       P1   419  1.00
     AM7  H     1     3      AM4     1  0.99
      P1  H   358  1251      AM1     1  0.92
      P1  H   416  1258      AM2     1  0.86
      P1  H   669  1470      AM3     1  0.96

> <Gold.Chemscore.Hbond.Weighted>
-44.0508

> <Gold.Chemscore.Metal.Weighted>
-0.0000

> <Gold.Chemscore.Lipo.Weighted>
-10.7320

> <Gold.Chemscore.Internal_Hbond.Weighted>
0.0000

> <Gold.Chemscore.DEClash.Weighted>
1.3129

> <Gold.Chemscore.DEInternal.Weighted>
0.1425

> <Gold.Chemscore.Rot.Weighted>
4.4584

> <Gold.Chemscore.Internal.Correction.Weighted>
0.0000

