#       Name:                F558-57DA3A678D48A4DD-57DA3A678D48A4DD-NMX
#       Creating user name   iorga
#       Creation time:       Wed Nov 27 19:37:55 2019


#       File generated by GOLD software.
#

@<TRIPOS>MOLECULE
F558-57DA3A678D48A4DD-57DA3A678D48A4DD-NMX|ligands_smiles_3D-hash|mol2|573|dock13
    35    36     1
SMALL
NO_CHARGES


@<TRIPOS>ATOM
      1 C1         -20.4613  13.1588  35.7964 C.3            1 <1>                0.0000
      2 O2         -19.7782  12.6788  34.6506 O.3            1 <1>                0.0000
      3 C3         -19.6519  13.4668  33.5713 C.2            1 <1>                0.0000
      4 O4         -19.9173  14.6696  33.5537 O.2            1 <1>                0.0000
      5 N5         -19.1690  12.6859  32.5285 N.am           1 <1>                0.0000
      6 C6         -18.8721  13.0771  31.1954 C.ar           1 <1>                0.0000
      7 C7         -19.6690  13.9732  30.4422 C.ar           1 <1>                0.0000
      8 C8         -19.3138  14.2968  29.1180 C.ar           1 <1>                0.0000
      9 C9         -18.1674  13.7265  28.5284 C.ar           1 <1>                0.0000
     10 C10        -17.7900  14.0741  27.1006 C.3            1 <1>                0.0000
     11 C11        -18.7722  13.5138  26.0897 C.ar           1 <1>                0.0000
     12 C12        -19.2106  12.1762  26.1764 C.ar           1 <1>                0.0000
     13 C13        -20.1231  11.7043  25.2115 C.ar           1 <1>                0.0000
     14 N14        -20.6001  12.4683  24.2051 N.ar           1 <1>                0.0000
     15 C15        -20.1772  13.7487  24.1300 C.ar           1 <1>                0.0000
     16 C16        -19.2676  14.3189  25.0431 C.ar           1 <1>                0.0000
     17 C17        -17.3769  12.8281  29.2729 C.ar           1 <1>                0.0000
     18 C18        -17.7306  12.5043  30.5968 C.ar           1 <1>                0.0000
     19 H19        -20.4729  12.3904  36.5694 H              1 <1>                0.0000
     20 H20        -19.9673  14.0426  36.2018 H              1 <1>                0.0000
     21 H21        -21.4940  13.4147  35.5558 H              1 <1>                0.0000
     22 H22        -18.9593  11.7303  32.7786 H              1 <1>                0.0000
     23 H23        -20.5635  14.4172  30.8489 H              1 <1>                0.0000
     24 H24        -19.9284  14.9829  28.5537 H              1 <1>                0.0000
     25 H25        -17.7337  15.1581  26.9913 H              1 <1>                0.0000
     26 H26        -16.7901  13.6948  26.8849 H              1 <1>                0.0000
     27 H27        -18.8591  11.5255  26.9637 H              1 <1>                0.0000
     28 H28        -20.4789  10.6854  25.2493 H              1 <1>                0.0000
     29 H29        -20.5757  14.3374  23.3171 H              1 <1>                0.0000
     30 H30        -18.9605  15.3495  24.9406 H              1 <1>                0.0000
     31 H31        -16.4972  12.3838  28.8306 H              1 <1>                0.0000
     32 H32        -17.1162  11.8124  31.1542 H              1 <1>                0.0000
     33 ****       -20.2513  15.1201  34.3816 LP             1 <1>                0.0000
     34 ****       -19.7987  15.1955  32.7115 LP             1 <1>                0.0000
     35 ****       -21.2455  12.0978  23.5371 LP             1 <1>                0.0000
@<TRIPOS>BOND
    1    1    2 1     
    2    1   19 1     
    3    1   20 1     
    4    1   21 1     
    5    2    3 1     
    6    3    4 2     
    7    3    5 am    
    8    5    6 1     
    9    5   22 1     
   10    6   18 ar    
   11    6    7 ar    
   12    7    8 ar    
   13    7   23 1     
   14    8    9 ar    
   15    8   24 1     
   16    9   10 1     
   17    9   17 ar    
   18   10   11 1     
   19   10   25 1     
   20   10   26 1     
   21   11   16 ar    
   22   11   12 ar    
   23   12   13 ar    
   24   12   27 1     
   25   13   14 ar    
   26   13   28 1     
   27   14   15 ar    
   28   15   16 ar    
   29   15   29 1     
   30   16   30 1     
   31   17   18 ar    
   32   17   31 1     
   33   18   32 1     
   34    4   33 1     
   35    4   34 1     
   36   14   35 1     
@<TRIPOS>SUBSTRUCTURE
      1 ****           1
@<TRIPOS>SET
LONE_PAIRS      STATIC     ATOMS    <user>   **** ""
3 33 34 35
DONOR_HYDROGENS      STATIC     ATOMS    <user>   **** ""
1 22
ATOM$BLUE        STATIC     ATOMS    COLORGROUP SYSTEM
3 33 34 35
ATOM$RED        STATIC     ATOMS    COLORGROUP SYSTEM
1 22
@<TRIPOS>COMMENT
> <Gold.Version>
5.7.1

> <Gold.Id.Protein>
5ENC|5ENC_protein|mol2

> <Gold.Protein.RotatedTorsions>
[ 1501  701  700  697 ] final -107.66 input   60.00 | X-H torsion
[ 1497  695  694  692 ] final  -36.81 input   60.00 | X-H torsion
[ 1251  358  357  355 ] final   -0.27 input   60.00 | X-H torsion
[ 1470  669  668  665 ] final   77.84 input   60.00 | X-H torsion

> <Gold.Protein.ActiveResidues>
 PRO28   PHE29   GLN31   PRO32   VAL33   TYR38   TYR41   PRO48   MET49   ASP50  
 ILE76   ASN79   SER80   TYR83   THR84   ILE91  

> <Gold.Protein.RotatedAtoms>
  -16.3661    9.5737   24.7099 H   0  0  0  0  0  0  0  0  0  0  0  0  # atno 1251 bound_to 358 
  -21.4285   11.5808   22.6530 H   0  0  0  0  0  0  0  0  0  0  0  0  # atno 1470 bound_to 669 
  -19.2287    9.0380   32.7494 H   0  0  0  0  0  0  0  0  0  0  0  0  # atno 1497 bound_to 695 
  -23.3771   11.3605   27.0343 H   0  0  0  0  0  0  0  0  0  0  0  0  # atno 1501 bound_to 701 
  -22.3522   11.2144   25.7787 LP  0  0  0  0  0  0  0  0  0  0  0  0  # atno 2046 bound_to 701 
  -22.5206    9.9897   26.8458 LP  0  0  0  0  0  0  0  0  0  0  0  0  # atno 2047 bound_to 701 
  -19.7600   10.5257   32.3590 LP  0  0  0  0  0  0  0  0  0  0  0  0  # atno 2052 bound_to 695 
  -18.1681   10.1738   32.2663 LP  0  0  0  0  0  0  0  0  0  0  0  0  # atno 2053 bound_to 695 
  -15.1503    8.5248   24.4457 LP  0  0  0  0  0  0  0  0  0  0  0  0  # atno 2056 bound_to 358 
  -14.8644   10.1325   24.4257 LP  0  0  0  0  0  0  0  0  0  0  0  0  # atno 2057 bound_to 358 

> <Gold.Protein.RotatedWaterAtoms>
  -17.7040   10.2320   24.0390 O.3 0  0  0  0  0  0  0  0  0  0  0  0  # atno 1    bound_to 2    3    AM1 ON 
  -18.6459   10.1815   24.3492 H   0  0  0  0  0  0  0  0  0  0  0  0  # atno 2    bound_to 1    AM1 ON 
  -17.6675   10.7070   23.1676 H   0  0  0  0  0  0  0  0  0  0  0  0  # atno 3    bound_to 1    AM1 ON 
  -17.3388    9.3074   23.9302 LP  0  0  0  0  0  0  0  0  0  0  0  0  # atno 4    bound_to 1    AM1 ON 
  -17.1574   10.7292   24.7128 LP  0  0  0  0  0  0  0  0  0  0  0  0  # atno 5    bound_to 1    AM1 ON 
  -13.7450   10.2720   23.0540 O.3 0  0  0  0  0  0  0  0  0  0  0  0  # atno 1    bound_to 2    3    AM2 ON 
  -14.3342   11.0513   22.8762 H   0  0  0  0  0  0  0  0  0  0  0  0  # atno 2    bound_to 1    AM2 ON 
  -14.2079    9.6393   23.6637 H   0  0  0  0  0  0  0  0  0  0  0  0  # atno 3    bound_to 1    AM2 ON 
  -12.8968   10.5859   23.4806 LP  0  0  0  0  0  0  0  0  0  0  0  0  # atno 4    bound_to 1    AM2 ON 
  -13.5338    9.8104   22.1924 LP  0  0  0  0  0  0  0  0  0  0  0  0  # atno 5    bound_to 1    AM2 ON 
  -21.1690   11.6250   24.3940 O.3 0  0  0  0  0  0  0  0  0  0  0  0  # atno 1    bound_to 2    3    AM3 OFF
  -21.1002   12.5574   24.7285 H   0  0  0  0  0  0  0  0  0  0  0  0  # atno 2    bound_to 1    AM3 OFF
  -21.1384   11.6264   23.4013 H   0  0  0  0  0  0  0  0  0  0  0  0  # atno 3    bound_to 1    AM3 OFF
  -22.0322   11.2238   24.7003 LP  0  0  0  0  0  0  0  0  0  0  0  0  # atno 4    bound_to 1    AM3 OFF
  -20.4059   11.0859   24.7503 LP  0  0  0  0  0  0  0  0  0  0  0  0  # atno 5    bound_to 1    AM3 OFF
  -14.6550   15.1580   23.4130 O.3 0  0  0  0  0  0  0  0  0  0  0  0  # atno 1    bound_to 2    3    AM4 ON 
  -13.8008   15.5894   23.6779 H   0  0  0  0  0  0  0  0  0  0  0  0  # atno 2    bound_to 1    AM4 ON 
  -15.4077   15.7842   23.5795 H   0  0  0  0  0  0  0  0  0  0  0  0  # atno 3    bound_to 1    AM4 ON 
  -14.7888   14.3255   23.9507 LP  0  0  0  0  0  0  0  0  0  0  0  0  # atno 4    bound_to 1    AM4 ON 
  -14.6236   14.9255   22.4409 LP  0  0  0  0  0  0  0  0  0  0  0  0  # atno 5    bound_to 1    AM4 ON 
  -23.6820   12.7820   28.0340 O.3 0  0  0  0  0  0  0  0  0  0  0  0  # atno 1    bound_to 2    3    AM5 ON 
  -23.8902   13.6920   27.6956 H   0  0  0  0  0  0  0  0  0  0  0  0  # atno 2    bound_to 1    AM5 ON 
  -23.6706   12.7927   29.0270 H   0  0  0  0  0  0  0  0  0  0  0  0  # atno 3    bound_to 1    AM5 ON 
  -22.7862   12.4966   27.6934 LP  0  0  0  0  0  0  0  0  0  0  0  0  # atno 4    bound_to 1    AM5 ON 
  -24.3796   12.1402   27.7155 LP  0  0  0  0  0  0  0  0  0  0  0  0  # atno 5    bound_to 1    AM5 ON 
  -16.9520   11.2350   21.5950 O.3 0  0  0  0  0  0  0  0  0  0  0  0  # atno 1    bound_to 2    3    AM6 ON 
  -16.9387   10.6516   20.7916 H   0  0  0  0  0  0  0  0  0  0  0  0  # atno 2    bound_to 1    AM6 ON 
  -16.2927   11.9691   21.4820 H   0  0  0  0  0  0  0  0  0  0  0  0  # atno 3    bound_to 1    AM6 ON 
  -16.7148   10.6954   22.4028 LP  0  0  0  0  0  0  0  0  0  0  0  0  # atno 4    bound_to 1    AM6 ON 
  -17.8664   11.6230   21.7101 LP  0  0  0  0  0  0  0  0  0  0  0  0  # atno 5    bound_to 1    AM6 ON 
  -14.9200   12.9840   21.7870 O.3 0  0  0  0  0  0  0  0  0  0  0  0  # atno 1    bound_to 2    3    AM7 ON 
  -14.0207   12.7966   21.4100 H   0  0  0  0  0  0  0  0  0  0  0  0  # atno 2    bound_to 1    AM7 ON 
  -14.8357   13.6241   22.5417 H   0  0  0  0  0  0  0  0  0  0  0  0  # atno 3    bound_to 1    AM7 ON 
  -15.3275   12.1322   22.1162 LP  0  0  0  0  0  0  0  0  0  0  0  0  # atno 4    bound_to 1    AM7 ON 
  -15.5030   13.3800   21.0775 LP  0  0  0  0  0  0  0  0  0  0  0  0  # atno 5    bound_to 1    AM7 ON 

> <Gold.Score>
     Score         DG    S(hbond)    S(metal)    S(lipo)     H(rot)  DE(clash)    DE(int)    S(bar)      intcor
     50.80     -51.74      12.45        0.00     172.09       1.35       0.46       0.47      12.00       0.17

> <Gold.Chemscore.Fitness>
50.8047

> <Gold.Chemscore.DG>
-51.7367

> <Gold.Chemscore.ZeroCoef>
-5.4800

> <Gold.Chemscore.Hbond>
12.4492

> <Gold.Chemscore.Metal>
0.0000

> <Gold.Chemscore.Lipo>
172.0905

> <Gold.Chemscore.Internal_Hbond>
0.0000

> <Gold.Chemscore.DEClash>
0.4596

> <Gold.Chemscore.DEInternal>
0.4723

> <Gold.Chemscore.Rot>
1.3508

> <Gold.Chemscore.Internal.Correction>
0.1690

> <Gold.Chemscore.SBar>
12.0000

> <Gold.Chemscore.Hbonds>
donor molecule, donor type, donor heavy atom, donor atom, acceptor molecule, acceptor atom, score
      L1  H     5    22       P1   695  0.85
     AM1  H     1     3      AM6     1  0.98
     AM2  H     1     3       P1   358  0.91
     AM4  H     1     2       P1   267  0.99
     AM4  H     1     3       P1   238  1.00
     AM6  H     1     2       P1   634  1.00
     AM6  H     1     3      AM7     1  0.98
     AM7  H     1     2       P1   419  0.99
     AM7  H     1     3      AM4     1  0.99
      P1  H   701  1501      AM5     1  0.99
      P1  H   358  1251      AM1     1  0.95
      P1  H   416  1258      AM2     1  0.87
      P1  H   669  1470       L1    14  0.95

> <Gold.Chemscore.Hbond.Weighted>
-41.5803

> <Gold.Chemscore.Metal.Weighted>
-0.0000

> <Gold.Chemscore.Lipo.Weighted>
-20.1346

> <Gold.Chemscore.Internal_Hbond.Weighted>
0.0000

> <Gold.Chemscore.DEClash.Weighted>
0.4596

> <Gold.Chemscore.DEInternal.Weighted>
0.4723

> <Gold.Chemscore.Rot.Weighted>
3.4582

> <Gold.Chemscore.Internal.Correction.Weighted>
0.1690

