#       Name:                F741-4492AB870F17B2D8-4492AB870F17B2D8-NMX
#       Creating user name   iorga
#       Creation time:       Wed Nov 27 13:46:08 2019


#       File generated by GOLD software.
#

@<TRIPOS>MOLECULE
F741-4492AB870F17B2D8-4492AB870F17B2D8-NMX|ligands_smiles_3D-hash|mol2|762|dock50
    29    31     1
SMALL
NO_CHARGES


@<TRIPOS>ATOM
      1 O1         -18.4836  17.7748  27.8913 O.2            1 <1>                0.0000
      2 C2         -18.1312  17.2041  26.8591 C.2            1 <1>                0.0000
      3 N3         -17.3975  17.7906  25.9014 N.am           1 <1>                0.0000
      4 C4         -16.9043  19.1292  25.9372 C.3            1 <1>                0.0000
      5 C5         -15.4331  19.3445  25.6552 C.3            1 <1>                0.0000
      6 C6         -15.9555  19.4973  27.0571 C.3            1 <1>                0.0000
      7 C7         -18.5259  15.8052  26.5364 C.2            1 <1>                0.0000
      8 C8         -19.2331  15.2869  25.4223 C.2            1 <1>                0.0000
      9 N9         -19.3853  13.9830  25.4541 N.2            1 <1>                0.0000
     10 N10        -18.7543  13.6072  26.6133 N.pl3          1 <1>                0.0000
     11 C11        -18.6382  12.3342  27.0862 C.2            1 <1>                0.0000
     12 C12        -17.9626  12.1511  28.2706 C.2            1 <1>                0.0000
     13 C13        -17.4342  13.2923  28.9225 C.2            1 <1>                0.0000
     14 N14        -17.5442  14.5378  28.4699 N.2            1 <1>                0.0000
     15 C15        -18.2050  14.7142  27.3082 C.2            1 <1>                0.0000
     16 H16        -17.1735  17.2477  25.0805 H              1 <1>                0.0000
     17 H17        -17.5758  19.9191  25.6031 H              1 <1>                0.0000
     18 H18        -14.8218  18.4699  25.4410 H              1 <1>                0.0000
     19 H19        -15.1526  20.2502  25.1213 H              1 <1>                0.0000
     20 H20        -16.0253  20.5052  27.4612 H              1 <1>                0.0000
     21 H21        -15.6929  18.7246  27.7771 H              1 <1>                0.0000
     22 H22        -19.6355  15.8449  24.5896 H              1 <1>                0.0000
     23 H23        -19.0816  11.5314  26.5061 H              1 <1>                0.0000
     24 H24        -17.8397  11.1581  28.6903 H              1 <1>                0.0000
     25 H25        -16.8980  13.1711  29.8581 H              1 <1>                0.0000
     26 ****       -18.2228  18.7271  28.0501 LP             1 <1>                0.0000
     27 ****       -19.0307  17.2863  28.5710 LP             1 <1>                0.0000
     28 ****       -19.8520  13.4001  24.7890 LP             1 <1>                0.0000
     29 ****       -17.1536  15.3107  28.9700 LP             1 <1>                0.0000
@<TRIPOS>BOND
    1    1    2 2     
    2    2    3 am    
    3    2    7 1     
    4    3    4 1     
    5    3   16 1     
    6    4    6 1     
    7    4    5 1     
    8    4   17 1     
    9    5    6 1     
   10    5   18 1     
   11    5   19 1     
   12    6   20 1     
   13    6   21 1     
   14    7   15 2     
   15    7    8 1     
   16    8    9 2     
   17    8   22 1     
   18    9   10 1     
   19   10   15 1     
   20   10   11 1     
   21   11   12 2     
   22   11   23 1     
   23   12   13 1     
   24   12   24 1     
   25   13   14 2     
   26   13   25 1     
   27   14   15 1     
   28    1   26 1     
   29    1   27 1     
   30    9   28 1     
   31   14   29 1     
@<TRIPOS>SUBSTRUCTURE
      1 ****           1
@<TRIPOS>SET
LONE_PAIRS      STATIC     ATOMS    <user>   **** ""
4 26 27 28 29
DONOR_HYDROGENS      STATIC     ATOMS    <user>   **** ""
1 16
ATOM$BLUE        STATIC     ATOMS    COLORGROUP SYSTEM
4 26 27 28 29
ATOM$RED        STATIC     ATOMS    COLORGROUP SYSTEM
1 16
@<TRIPOS>COMMENT
> <Gold.Version>
5.7.1

> <Gold.Id.Protein>
5ENC|5ENC_protein|mol2

> <Gold.Protein.RotatedTorsions>
[ 1501  701  700  697 ] final -101.12 input   60.00 | X-H torsion
[ 1497  695  694  692 ] final  123.88 input   60.00 | X-H torsion
[ 1251  358  357  355 ] final   -7.56 input   60.00 | X-H torsion
[ 1470  669  668  665 ] final   41.82 input   60.00 | X-H torsion

> <Gold.Protein.ActiveResidues>
 PRO28   PHE29   GLN31   PRO32   VAL33   TYR38   TYR41   PRO48   MET49   ASP50  
 ILE76   ASN79   SER80   TYR83   THR84   ILE91  

> <Gold.Protein.RotatedAtoms>
  -16.3795    9.4555   24.7099 H   0  0  0  0  0  0  0  0  0  0  0  0  # atno 1251 bound_to 358 
  -21.6437   11.0898   22.8715 H   0  0  0  0  0  0  0  0  0  0  0  0  # atno 1470 bound_to 669 
  -18.5851   10.6662   32.1644 H   0  0  0  0  0  0  0  0  0  0  0  0  # atno 1497 bound_to 695 
  -23.3840   11.2772   27.1008 H   0  0  0  0  0  0  0  0  0  0  0  0  # atno 1501 bound_to 701 
  -22.4113   11.3025   25.7965 LP  0  0  0  0  0  0  0  0  0  0  0  0  # atno 2046 bound_to 701 
  -22.4545    9.9855   26.7610 LP  0  0  0  0  0  0  0  0  0  0  0  0  # atno 2047 bound_to 701 
  -18.5876    9.1123   32.6477 LP  0  0  0  0  0  0  0  0  0  0  0  0  # atno 2052 bound_to 695 
  -19.9886    9.9475   32.5668 LP  0  0  0  0  0  0  0  0  0  0  0  0  # atno 2053 bound_to 695 
  -15.0424    8.5728   24.4256 LP  0  0  0  0  0  0  0  0  0  0  0  0  # atno 2056 bound_to 358 
  -14.9587   10.2035   24.4458 LP  0  0  0  0  0  0  0  0  0  0  0  0  # atno 2057 bound_to 358 

> <Gold.Protein.RotatedWaterAtoms>
  -17.7040   10.2320   24.0390 O.3 0  0  0  0  0  0  0  0  0  0  0  0  # atno 1    bound_to 2    3    AM1 ON 
  -17.6136   10.7037   23.1699 H   0  0  0  0  0  0  0  0  0  0  0  0  # atno 2    bound_to 1    AM1 ON 
  -18.6087   10.3983   24.4133 H   0  0  0  0  0  0  0  0  0  0  0  0  # atno 3    bound_to 1    AM1 ON 
  -17.0121   10.5716   24.6761 LP  0  0  0  0  0  0  0  0  0  0  0  0  # atno 4    bound_to 1    AM1 ON 
  -17.5760    9.2500   23.9002 LP  0  0  0  0  0  0  0  0  0  0  0  0  # atno 5    bound_to 1    AM1 ON 
  -13.7450   10.2720   23.0540 O.3 0  0  0  0  0  0  0  0  0  0  0  0  # atno 1    bound_to 2    3    AM2 ON 
  -14.4641   10.8058   22.6251 H   0  0  0  0  0  0  0  0  0  0  0  0  # atno 2    bound_to 1    AM2 ON 
  -14.1314    9.7251   23.7874 H   0  0  0  0  0  0  0  0  0  0  0  0  # atno 3    bound_to 1    AM2 ON 
  -13.0506   10.8872   23.4273 LP  0  0  0  0  0  0  0  0  0  0  0  0  # atno 4    bound_to 1    AM2 ON 
  -13.3262    9.6699   22.3742 LP  0  0  0  0  0  0  0  0  0  0  0  0  # atno 5    bound_to 1    AM2 ON 
  -21.1690   11.6250   24.3940 O.3 0  0  0  0  0  0  0  0  0  0  0  0  # atno 1    bound_to 2    3    AM3 ON 
  -21.5149   11.2900   25.2624 H   0  0  0  0  0  0  0  0  0  0  0  0  # atno 2    bound_to 1    AM3 ON 
  -20.6143   12.4342   24.5486 H   0  0  0  0  0  0  0  0  0  0  0  0  # atno 3    bound_to 1    AM3 ON 
  -21.9366   11.8563   23.7963 LP  0  0  0  0  0  0  0  0  0  0  0  0  # atno 4    bound_to 1    AM3 ON 
  -20.6115   10.9163   23.9615 LP  0  0  0  0  0  0  0  0  0  0  0  0  # atno 5    bound_to 1    AM3 ON 
  -14.6550   15.1580   23.4130 O.3 0  0  0  0  0  0  0  0  0  0  0  0  # atno 1    bound_to 2    3    AM4 ON 
  -15.3402   15.8752   23.3670 H   0  0  0  0  0  0  0  0  0  0  0  0  # atno 2    bound_to 1    AM4 ON 
  -13.7668   15.5604   23.6016 H   0  0  0  0  0  0  0  0  0  0  0  0  # atno 3    bound_to 1    AM4 ON 
  -14.6221   14.6719   22.5397 LP  0  0  0  0  0  0  0  0  0  0  0  0  # atno 4    bound_to 1    AM4 ON 
  -14.8922   14.5167   24.1427 LP  0  0  0  0  0  0  0  0  0  0  0  0  # atno 5    bound_to 1    AM4 ON 
  -23.6820   12.7820   28.0340 O.3 0  0  0  0  0  0  0  0  0  0  0  0  # atno 1    bound_to 2    3    AM5 ON 
  -24.4595   12.9043   28.6395 H   0  0  0  0  0  0  0  0  0  0  0  0  # atno 2    bound_to 1    AM5 ON 
  -23.0856   13.5736   28.0970 H   0  0  0  0  0  0  0  0  0  0  0  0  # atno 3    bound_to 1    AM5 ON 
  -24.0049   12.6820   27.0929 LP  0  0  0  0  0  0  0  0  0  0  0  0  # atno 4    bound_to 1    AM5 ON 
  -23.1767   11.9617   28.3019 LP  0  0  0  0  0  0  0  0  0  0  0  0  # atno 5    bound_to 1    AM5 ON 
  -16.9520   11.2350   21.5950 O.3 0  0  0  0  0  0  0  0  0  0  0  0  # atno 1    bound_to 2    3    AM6 ON 
  -17.0631   10.7294   20.7476 H   0  0  0  0  0  0  0  0  0  0  0  0  # atno 2    bound_to 1    AM6 ON 
  -16.2712   11.9469   21.4688 H   0  0  0  0  0  0  0  0  0  0  0  0  # atno 3    bound_to 1    AM6 ON 
  -16.6530   10.6122   22.3180 LP  0  0  0  0  0  0  0  0  0  0  0  0  # atno 4    bound_to 1    AM6 ON 
  -17.8246   11.6501   21.8524 LP  0  0  0  0  0  0  0  0  0  0  0  0  # atno 5    bound_to 1    AM6 ON 
  -14.9200   12.9840   21.7870 O.3 0  0  0  0  0  0  0  0  0  0  0  0  # atno 1    bound_to 2    3    AM7 ON 
  -14.9038   13.6558   22.5181 H   0  0  0  0  0  0  0  0  0  0  0  0  # atno 2    bound_to 1    AM7 ON 
  -13.9907   12.7098   21.5688 H   0  0  0  0  0  0  0  0  0  0  0  0  # atno 3    bound_to 1    AM7 ON 
  -15.3486   13.3835   20.9766 LP  0  0  0  0  0  0  0  0  0  0  0  0  # atno 4    bound_to 1    AM7 ON 
  -15.4433   12.1841   22.0808 LP  0  0  0  0  0  0  0  0  0  0  0  0  # atno 5    bound_to 1    AM7 ON 

> <Gold.Score>
     Score         DG    S(hbond)    S(metal)    S(lipo)     H(rot)  DE(clash)    DE(int)    S(bar)      intcor
     44.37     -45.28      13.88        0.00      85.40       1.00       0.04       0.87      14.00       0.26

> <Gold.Chemscore.Fitness>
44.3694

> <Gold.Chemscore.DG>
-45.2846

> <Gold.Chemscore.ZeroCoef>
-5.4800

> <Gold.Chemscore.Hbond>
13.8842

> <Gold.Chemscore.Metal>
0.0000

> <Gold.Chemscore.Lipo>
85.3962

> <Gold.Chemscore.Internal_Hbond>
0.0000

> <Gold.Chemscore.DEClash>
0.0411

> <Gold.Chemscore.DEInternal>
0.8741

> <Gold.Chemscore.Rot>
1.0000

> <Gold.Chemscore.Internal.Correction>
0.2566

> <Gold.Chemscore.SBar>
14.0000

> <Gold.Chemscore.Hbonds>
donor molecule, donor type, donor heavy atom, donor atom, acceptor molecule, acceptor atom, score
      L1  H     3    16       P1   238  0.92
     AM1  H     1     2      AM6     1  0.99
     AM2  H     1     3       P1   358  0.91
     AM3  H     1     2       P1   701  0.74
     AM3  H     1     3       L1     9  0.73
     AM4  H     1     2       P1   238  1.00
     AM4  H     1     3       P1   267  1.00
     AM6  H     1     2       P1   634  1.00
     AM6  H     1     3      AM7     1  0.98
     AM7  H     1     2      AM4     1  0.97
     AM7  H     1     3       P1   419  0.99
      P1  H   701  1501      AM5     1  0.98
      P1  H   358  1251      AM1     1  0.91
      P1  H   416  1258      AM2     1  0.80
      P1  H   669  1470      AM3     1  0.98

> <Gold.Chemscore.Hbond.Weighted>
-46.3733

> <Gold.Chemscore.Metal.Weighted>
-0.0000

> <Gold.Chemscore.Lipo.Weighted>
-9.9914

> <Gold.Chemscore.Internal_Hbond.Weighted>
0.0000

> <Gold.Chemscore.DEClash.Weighted>
0.0411

> <Gold.Chemscore.DEInternal.Weighted>
0.8741

> <Gold.Chemscore.Rot.Weighted>
2.5600

> <Gold.Chemscore.Internal.Correction.Weighted>
0.2566

