#       Name:                F618-598FE54B912067B7-6EC977A374E70D6B-NMX
#       Creating user name   iorga
#       Creation time:       Wed Nov 27 17:24:13 2019


#       File generated by GOLD software.
#

@<TRIPOS>MOLECULE
F618-598FE54B912067B7-6EC977A374E70D6B-NMX|ligands_smiles_3D-hash|mol2|635|dock40
    29    29     1
SMALL
NO_CHARGES


@<TRIPOS>ATOM
      1 C1         -19.1971  13.3628  27.9631 C.3            1 <1>                0.0000
      2 C2         -17.9596  13.7923  27.1530 C.3            1 <1>                0.0000
      3 H3         -17.0863  13.4329  27.6986 H              1 <1>                0.0000
      4 C4         -17.9177  13.0985  25.7757 C.3            1 <1>                0.0000
      5 O5         -18.6420  11.8874  25.8220 O.3            1 <1>                0.0000
      6 N6         -17.8851  15.2553  27.0287 N.pl3          1 <1>                0.0000
      7 C7         -18.9422  15.9090  26.2611 C.3            1 <1>                0.0000
      8 C8         -16.6558  15.9166  27.2584 C.ar           1 <1>                0.0000
      9 C9         -14.8906  17.2354  26.3292 C.ar           1 <1>                0.0000
     10 C10        -14.2057  17.2619  27.5580 C.ar           1 <1>                0.0000
     11 C11        -14.7706  16.5992  28.6646 C.ar           1 <1>                0.0000
     12 C12        -16.0007  15.9241  28.5193 C.ar           1 <1>                0.0000
     13 F13        -16.5429  15.3127  29.6000 F              1 <1>                0.0000
     14 H14        -19.2007  12.2843  28.1240 H              1 <1>                0.0000
     15 H15        -19.2145  13.8364  28.9449 H              1 <1>                0.0000
     16 H16        -20.1261  13.6193  27.4538 H              1 <1>                0.0000
     17 H17        -18.3990  13.7279  25.0267 H              1 <1>                0.0000
     18 H18        -16.9017  12.9172  25.4252 H              1 <1>                0.0000
     19 H19        -18.6368  11.5667  26.7114 H              1 <1>                0.0000
     20 H20        -19.3229  15.2563  25.4749 H              1 <1>                0.0000
     21 H21        -19.7690  16.1833  26.9166 H              1 <1>                0.0000
     22 H22        -18.5855  16.8195  25.7808 H              1 <1>                0.0000
     23 H23        -14.5377  17.7166  25.4284 H              1 <1>                0.0000
     24 H24        -13.2652  17.7848  27.6521 H              1 <1>                0.0000
     25 H25        -14.2681  16.6123  29.6206 H              1 <1>                0.0000
     26 N26        -16.0656  16.5774  26.2298 N.pl3          1 <1>                0.0000
     27 H27        -16.5367  16.5746  25.3250 H              1 <1>                0.0000
     28 ****       -18.2129  11.2150  25.2189 LP             1 <1>                0.0000
     29 ****       -19.5840  12.0468  25.5269 LP             1 <1>                0.0000
@<TRIPOS>BOND
    1    1    2 1     
    2    1   14 1     
    3    1   15 1     
    4    1   16 1     
    5    2    3 1     
    6    2    4 1     
    7    2    6 1     
    8    4    5 1     
    9    4   17 1     
   10    4   18 1     
   11    5   19 1     
   12    6    7 1     
   13    6    8 1     
   14    7   20 1     
   15    7   21 1     
   16    7   22 1     
   17    8   12 ar    
   18    8   26 ar    
   19    9   10 ar    
   20    9   23 1     
   21    9   26 ar    
   22   10   11 ar    
   23   10   24 1     
   24   11   12 ar    
   25   11   25 1     
   26   12   13 1     
   27   26   27 1     
   28    5   28 1     
   29    5   29 1     
@<TRIPOS>SUBSTRUCTURE
      1 ****           1
@<TRIPOS>SET
LONE_PAIRS      STATIC     ATOMS    <user>   **** ""
2 28 29
DONOR_HYDROGENS      STATIC     ATOMS    <user>   **** ""
2 19 27
ATOM$BLUE        STATIC     ATOMS    COLORGROUP SYSTEM
2 28 29
ATOM$RED        STATIC     ATOMS    COLORGROUP SYSTEM
2 19 27
@<TRIPOS>COMMENT
> <Gold.Version>
5.7.1

> <Gold.Id.Protein>
5ENC|5ENC_protein|mol2

> <Gold.Protein.RotatedTorsions>
[ 1501  701  700  697 ] final  -56.55 input   60.00 | X-H torsion
[ 1497  695  694  692 ] final   60.64 input   60.00 | X-H torsion
[ 1251  358  357  355 ] final   -8.48 input   60.00 | X-H torsion
[ 1470  669  668  665 ] final   61.02 input   60.00 | X-H torsion

> <Gold.Protein.ActiveResidues>
 PRO28   PHE29   GLN31   PRO32   VAL33   TYR38   TYR41   PRO48   MET49   ASP50  
 ILE76   ASN79   SER80   TYR83   THR84   ILE91  

> <Gold.Protein.RotatedAtoms>
  -16.3802    9.4404   24.7097 H   0  0  0  0  0  0  0  0  0  0  0  0  # atno 1251 bound_to 358 
  -21.5048   11.3583   22.7931 H   0  0  0  0  0  0  0  0  0  0  0  0  # atno 1470 bound_to 669 
  -18.1251    9.8229   32.3669 H   0  0  0  0  0  0  0  0  0  0  0  0  # atno 1497 bound_to 695 
  -23.2198   10.6260   27.3314 H   0  0  0  0  0  0  0  0  0  0  0  0  # atno 1501 bound_to 701 
  -22.8867   11.6991   26.1543 LP  0  0  0  0  0  0  0  0  0  0  0  0  # atno 2046 bound_to 701 
  -22.1445   10.2446   26.1710 LP  0  0  0  0  0  0  0  0  0  0  0  0  # atno 2047 bound_to 701 
  -19.5686    9.1776   32.7516 LP  0  0  0  0  0  0  0  0  0  0  0  0  # atno 2052 bound_to 695 
  -19.4709   10.7314   32.2588 LP  0  0  0  0  0  0  0  0  0  0  0  0  # atno 2053 bound_to 695 
  -15.0291    8.5799   24.4232 LP  0  0  0  0  0  0  0  0  0  0  0  0  # atno 2056 bound_to 358 
  -14.9713   10.2116   24.4484 LP  0  0  0  0  0  0  0  0  0  0  0  0  # atno 2057 bound_to 358 

> <Gold.Protein.RotatedWaterAtoms>
  -17.7040   10.2320   24.0390 O.3 0  0  0  0  0  0  0  0  0  0  0  0  # atno 1    bound_to 2    3    AM1 ON 
  -17.7043   10.5657   23.1038 H   0  0  0  0  0  0  0  0  0  0  0  0  # atno 2    bound_to 1    AM1 ON 
  -18.3379   10.7697   24.5825 H   0  0  0  0  0  0  0  0  0  0  0  0  # atno 3    bound_to 1    AM1 ON 
  -16.7839   10.3140   24.4219 LP  0  0  0  0  0  0  0  0  0  0  0  0  # atno 4    bound_to 1    AM1 ON 
  -17.9856    9.2725   24.0506 LP  0  0  0  0  0  0  0  0  0  0  0  0  # atno 5    bound_to 1    AM1 ON 
  -13.7450   10.2720   23.0540 O.3 0  0  0  0  0  0  0  0  0  0  0  0  # atno 1    bound_to 2    3    AM2 ON 
  -14.4408   10.4267   23.7454 H   0  0  0  0  0  0  0  0  0  0  0  0  # atno 2    bound_to 1    AM2 ON 
  -13.6079   11.1046   22.5303 H   0  0  0  0  0  0  0  0  0  0  0  0  # atno 3    bound_to 1    AM2 ON 
  -14.0403    9.5382   22.4422 LP  0  0  0  0  0  0  0  0  0  0  0  0  # atno 4    bound_to 1    AM2 ON 
  -12.8871   10.0116   23.4969 LP  0  0  0  0  0  0  0  0  0  0  0  0  # atno 5    bound_to 1    AM2 ON 
  -21.1690   11.6250   24.3940 O.3 0  0  0  0  0  0  0  0  0  0  0  0  # atno 1    bound_to 2    3    AM3 ON 
  -20.2112   11.6090   24.6556 H   0  0  0  0  0  0  0  0  0  0  0  0  # atno 2    bound_to 1    AM3 ON 
  -21.7354   11.5775   25.2084 H   0  0  0  0  0  0  0  0  0  0  0  0  # atno 3    bound_to 1    AM3 ON 
  -21.3666   10.8419   23.8043 LP  0  0  0  0  0  0  0  0  0  0  0  0  # atno 4    bound_to 1    AM3 ON 
  -21.3656   12.4721   23.9002 LP  0  0  0  0  0  0  0  0  0  0  0  0  # atno 5    bound_to 1    AM3 ON 
  -14.6550   15.1580   23.4130 O.3 0  0  0  0  0  0  0  0  0  0  0  0  # atno 1    bound_to 2    3    AM4 ON 
  -15.4180   15.7588   23.6199 H   0  0  0  0  0  0  0  0  0  0  0  0  # atno 2    bound_to 1    AM4 ON 
  -13.8023   15.6206   23.6258 H   0  0  0  0  0  0  0  0  0  0  0  0  # atno 3    bound_to 1    AM4 ON 
  -14.6719   14.9201   22.4419 LP  0  0  0  0  0  0  0  0  0  0  0  0  # atno 4    bound_to 1    AM4 ON 
  -14.7283   14.3251   23.9615 LP  0  0  0  0  0  0  0  0  0  0  0  0  # atno 5    bound_to 1    AM4 ON 
  -23.6820   12.7820   28.0340 O.3 0  0  0  0  0  0  0  0  0  0  0  0  # atno 1    bound_to 2    3    AM5 OFF
  -23.4454   13.6368   28.4805 H   0  0  0  0  0  0  0  0  0  0  0  0  # atno 2    bound_to 1    AM5 OFF
  -23.0002   12.5692   27.3439 H   0  0  0  0  0  0  0  0  0  0  0  0  # atno 3    bound_to 1    AM5 OFF
  -24.5790   12.8694   27.6006 LP  0  0  0  0  0  0  0  0  0  0  0  0  # atno 4    bound_to 1    AM5 OFF
  -23.7098   12.0480   28.7126 LP  0  0  0  0  0  0  0  0  0  0  0  0  # atno 5    bound_to 1    AM5 OFF
  -16.9520   11.2350   21.5950 O.3 0  0  0  0  0  0  0  0  0  0  0  0  # atno 1    bound_to 2    3    AM6 ON 
  -17.0966   10.8925   20.6742 H   0  0  0  0  0  0  0  0  0  0  0  0  # atno 2    bound_to 1    AM6 ON 
  -16.3455   12.0208   21.5644 H   0  0  0  0  0  0  0  0  0  0  0  0  # atno 3    bound_to 1    AM6 ON 
  -16.5400   10.5176   22.1567 LP  0  0  0  0  0  0  0  0  0  0  0  0  # atno 4    bound_to 1    AM6 ON 
  -17.8292   11.5061   21.9913 LP  0  0  0  0  0  0  0  0  0  0  0  0  # atno 5    bound_to 1    AM6 ON 
  -14.9200   12.9840   21.7870 O.3 0  0  0  0  0  0  0  0  0  0  0  0  # atno 1    bound_to 2    3    AM7 ON 
  -14.7814   13.6681   22.4933 H   0  0  0  0  0  0  0  0  0  0  0  0  # atno 2    bound_to 1    AM7 ON 
  -14.0470   12.7538   21.3732 H   0  0  0  0  0  0  0  0  0  0  0  0  # atno 3    bound_to 1    AM7 ON 
  -15.5351   13.3473   21.0872 LP  0  0  0  0  0  0  0  0  0  0  0  0  # atno 4    bound_to 1    AM7 ON 
  -15.3235   12.1636   22.1921 LP  0  0  0  0  0  0  0  0  0  0  0  0  # atno 5    bound_to 1    AM7 ON 

> <Gold.Score>
     Score         DG    S(hbond)    S(metal)    S(lipo)     H(rot)  DE(clash)    DE(int)    S(bar)      intcor
     44.91     -45.06      13.78        0.00      86.19       1.77       0.07       0.09      12.00       0.40

> <Gold.Chemscore.Fitness>
44.9082

> <Gold.Chemscore.DG>
-45.0605

> <Gold.Chemscore.ZeroCoef>
-5.4800

> <Gold.Chemscore.Hbond>
13.7838

> <Gold.Chemscore.Metal>
0.0000

> <Gold.Chemscore.Lipo>
86.1861

> <Gold.Chemscore.Internal_Hbond>
0.0000

> <Gold.Chemscore.DEClash>
0.0655

> <Gold.Chemscore.DEInternal>
0.0869

> <Gold.Chemscore.Rot>
1.7739

> <Gold.Chemscore.Internal.Correction>
0.3968

> <Gold.Chemscore.SBar>
12.0000

> <Gold.Chemscore.Hbonds>
donor molecule, donor type, donor heavy atom, donor atom, acceptor molecule, acceptor atom, score
      L1  H    26    27       P1   238  0.99
     AM1  H     1     2      AM6     1  0.98
     AM1  H     1     3       L1     5  0.86
     AM2  H     1     2       P1   358  0.64
     AM2  H     1     3       P1   419  0.69
     AM3  H     1     2       L1     5  0.96
     AM3  H     1     3       P1   701  0.68
     AM4  H     1     2       P1   238  1.00
     AM4  H     1     3       P1   267  1.00
     AM6  H     1     2       P1   634  0.99
     AM6  H     1     3      AM7     1  0.99
     AM7  H     1     2      AM4     1  0.99
     AM7  H     1     3       P1   419  1.00
      P1  H   358  1251      AM1     1  0.91
      P1  H   669  1470      AM3     1  0.92
      P1  H   663  1465      AM2     1  0.20

> <Gold.Chemscore.Hbond.Weighted>
-46.0378

> <Gold.Chemscore.Metal.Weighted>
-0.0000

> <Gold.Chemscore.Lipo.Weighted>
-10.0838

> <Gold.Chemscore.Internal_Hbond.Weighted>
0.0000

> <Gold.Chemscore.DEClash.Weighted>
0.0655

> <Gold.Chemscore.DEInternal.Weighted>
0.0869

> <Gold.Chemscore.Rot.Weighted>
4.5411

> <Gold.Chemscore.Internal.Correction.Weighted>
0.3968

