#       Name:                F95-FAF1FB787FD87588-FAF1FB787FD87588-NMX
#       Creating user name   iorga
#       Creation time:       Wed Nov 27 12:21:21 2019


#       File generated by GOLD software.
#

@<TRIPOS>MOLECULE
F95-FAF1FB787FD87588-FAF1FB787FD87588-NMX|ligands_smiles_3D-hash|mol2|96|dock26
    29    29     1
SMALL
NO_CHARGES


@<TRIPOS>ATOM
      1 C1         -19.7870  14.7544  33.0286 C.3            1 <1>                0.0000
      2 C2         -19.8775  13.2322  33.0335 C.2            1 <1>                0.0000
      3 O3         -20.8061  12.6701  33.6131 O.2            1 <1>                0.0000
      4 N4         -18.9052  12.5772  32.3814 N.am           1 <1>                0.0000
      5 C5         -17.7879  13.2136  31.6902 C.3            1 <1>                0.0000
      6 C6         -18.0176  13.4416  30.2017 C.ar           1 <1>                0.0000
      7 C7         -18.4084  14.7074  29.7076 C.ar           1 <1>                0.0000
      8 C8         -18.6150  14.8992  28.3279 C.ar           1 <1>                0.0000
      9 C9         -18.4250  13.8241  27.4384 C.ar           1 <1>                0.0000
     10 C10        -18.0272  12.5604  27.9180 C.ar           1 <1>                0.0000
     11 C11        -17.8213  12.3742  29.2988 C.ar           1 <1>                0.0000
     12 S12        -18.7027  14.0808  25.6904 S.o2           1 <1>                0.0000
     13 O13        -18.8618  12.7701  25.0419 O.2            1 <1>                0.0000
     14 O14        -19.7182  15.1320  25.5230 O.2            1 <1>                0.0000
     15 N15        -17.1963  14.7351  25.1777 N.pl3          1 <1>                0.0000
     16 H16        -19.6281  15.1272  32.0161 H              1 <1>                0.0000
     17 H17        -20.7060  15.1984  33.4131 H              1 <1>                0.0000
     18 H18        -18.9584  15.0864  33.6544 H              1 <1>                0.0000
     19 H19        -18.9388  11.5681  32.3642 H              1 <1>                0.0000
     20 H20        -17.6062  14.1809  32.1589 H              1 <1>                0.0000
     21 H21        -16.8826  12.6230  31.8425 H              1 <1>                0.0000
     22 H22        -18.5534  15.5383  30.3822 H              1 <1>                0.0000
     23 H23        -18.9182  15.8667  27.9554 H              1 <1>                0.0000
     24 H24        -17.8794  11.7337  27.2392 H              1 <1>                0.0000
     25 H25        -17.5154  11.4043  29.6637 H              1 <1>                0.0000
     26 H26        -17.3322  15.5462  24.5747 H              1 <1>                0.0000
     27 H27        -16.6252  14.0269  24.7173 H              1 <1>                0.0000
     28 ****       -21.5036  13.2117  34.0823 LP             1 <1>                0.0000
     29 ****       -20.8633  11.6717  33.6149 LP             1 <1>                0.0000
@<TRIPOS>BOND
    1    1    2 1     
    2    1   16 1     
    3    1   17 1     
    4    1   18 1     
    5    2    3 2     
    6    2    4 am    
    7    4    5 1     
    8    4   19 1     
    9    5    6 1     
   10    5   20 1     
   11    5   21 1     
   12    6   11 ar    
   13    6    7 ar    
   14    7    8 ar    
   15    7   22 1     
   16    8    9 ar    
   17    8   23 1     
   18    9   10 ar    
   19    9   12 1     
   20   10   11 ar    
   21   10   24 1     
   22   11   25 1     
   23   12   13 2     
   24   12   14 2     
   25   12   15 1     
   26   15   26 1     
   27   15   27 1     
   28    3   28 1     
   29    3   29 1     
@<TRIPOS>SUBSTRUCTURE
      1 ****           1
@<TRIPOS>SET
LONE_PAIRS      STATIC     ATOMS    <user>   **** ""
4 28 29 13 14
DONOR_HYDROGENS      STATIC     ATOMS    <user>   **** ""
3 19 26 27
ATOM$BLUE        STATIC     ATOMS    COLORGROUP SYSTEM
4 28 29 13 14
ATOM$RED        STATIC     ATOMS    COLORGROUP SYSTEM
3 19 26 27
@<TRIPOS>COMMENT
> <Gold.Version>
5.7.1

> <Gold.Id.Protein>
5ENC|5ENC_protein|mol2

> <Gold.Protein.RotatedTorsions>
[ 1501  701  700  697 ] final  -41.50 input   60.00 | X-H torsion
[ 1497  695  694  692 ] final  -22.10 input   60.00 | X-H torsion
[ 1251  358  357  355 ] final   -1.50 input   60.00 | X-H torsion
[ 1470  669  668  665 ] final   37.45 input   60.00 | X-H torsion

> <Gold.Protein.ActiveResidues>
 PRO28   PHE29   GLN31   PRO32   VAL33   TYR38   TYR41   PRO48   MET49   ASP50  
 ILE76   ASN79   SER80   TYR83   THR84   ILE91  

> <Gold.Protein.RotatedAtoms>
  -16.3694    9.5539   24.7101 H   0  0  0  0  0  0  0  0  0  0  0  0  # atno 1251 bound_to 358 
  -21.6816   11.0295   22.8761 H   0  0  0  0  0  0  0  0  0  0  0  0  # atno 1470 bound_to 669 
  -18.9912    9.0153   32.7263 H   0  0  0  0  0  0  0  0  0  0  0  0  # atno 1497 bound_to 695 
  -23.0933   10.4174   27.3072 H   0  0  0  0  0  0  0  0  0  0  0  0  # atno 1501 bound_to 701 
  -23.0434   11.7273   26.3430 LP  0  0  0  0  0  0  0  0  0  0  0  0  # atno 2046 bound_to 701 
  -22.1151   10.4266   26.0067 LP  0  0  0  0  0  0  0  0  0  0  0  0  # atno 2047 bound_to 701 
  -19.8924   10.3383   32.4337 LP  0  0  0  0  0  0  0  0  0  0  0  0  # atno 2052 bound_to 695 
  -18.2748   10.3840   32.2148 LP  0  0  0  0  0  0  0  0  0  0  0  0  # atno 2053 bound_to 695 
  -15.1317    8.5319   24.4422 LP  0  0  0  0  0  0  0  0  0  0  0  0  # atno 2056 bound_to 358 
  -14.8797   10.1453   24.4290 LP  0  0  0  0  0  0  0  0  0  0  0  0  # atno 2057 bound_to 358 

> <Gold.Protein.RotatedWaterAtoms>
  -17.7040   10.2320   24.0390 O.3 0  0  0  0  0  0  0  0  0  0  0  0  # atno 1    bound_to 2    3    AM1 ON 
  -17.7205   10.2237   23.0462 H   0  0  0  0  0  0  0  0  0  0  0  0  # atno 2    bound_to 1    AM1 ON 
  -18.2136   11.0167   24.3719 H   0  0  0  0  0  0  0  0  0  0  0  0  # atno 3    bound_to 1    AM1 ON 
  -16.7574   10.2903   24.3562 LP  0  0  0  0  0  0  0  0  0  0  0  0  # atno 4    bound_to 1    AM1 ON 
  -18.1208    9.3920   24.3864 LP  0  0  0  0  0  0  0  0  0  0  0  0  # atno 5    bound_to 1    AM1 ON 
  -13.7450   10.2720   23.0540 O.3 0  0  0  0  0  0  0  0  0  0  0  0  # atno 1    bound_to 2    3    AM2 ON 
  -14.3331   11.0480   22.8590 H   0  0  0  0  0  0  0  0  0  0  0  0  # atno 2    bound_to 1    AM2 ON 
  -14.1735    9.6962   23.7403 H   0  0  0  0  0  0  0  0  0  0  0  0  # atno 3    bound_to 1    AM2 ON 
  -12.8640   10.5990   23.3960 LP  0  0  0  0  0  0  0  0  0  0  0  0  # atno 4    bound_to 1    AM2 ON 
  -13.6023    9.7434   22.2172 LP  0  0  0  0  0  0  0  0  0  0  0  0  # atno 5    bound_to 1    AM2 ON 
  -21.1690   11.6250   24.3940 O.3 0  0  0  0  0  0  0  0  0  0  0  0  # atno 1    bound_to 2    3    AM3 ON 
  -20.2708   12.0367   24.4935 H   0  0  0  0  0  0  0  0  0  0  0  0  # atno 2    bound_to 1    AM3 ON 
  -21.5594   11.4612   25.2924 H   0  0  0  0  0  0  0  0  0  0  0  0  # atno 3    bound_to 1    AM3 ON 
  -21.0856   10.7575   23.9035 LP  0  0  0  0  0  0  0  0  0  0  0  0  # atno 4    bound_to 1    AM3 ON 
  -21.7638   12.2429   23.8797 LP  0  0  0  0  0  0  0  0  0  0  0  0  # atno 5    bound_to 1    AM3 ON 
  -14.6550   15.1580   23.4130 O.3 0  0  0  0  0  0  0  0  0  0  0  0  # atno 1    bound_to 2    3    AM4 ON 
  -15.4184   15.7566   23.6250 H   0  0  0  0  0  0  0  0  0  0  0  0  # atno 2    bound_to 1    AM4 ON 
  -13.8173   15.5485   23.7764 H   0  0  0  0  0  0  0  0  0  0  0  0  # atno 3    bound_to 1    AM4 ON 
  -14.5741   15.0595   22.4212 LP  0  0  0  0  0  0  0  0  0  0  0  0  # atno 4    bound_to 1    AM4 ON 
  -14.8107   14.2604   23.8255 LP  0  0  0  0  0  0  0  0  0  0  0  0  # atno 5    bound_to 1    AM4 ON 
  -23.6820   12.7820   28.0340 O.3 0  0  0  0  0  0  0  0  0  0  0  0  # atno 1    bound_to 2    3    AM5 OFF
  -24.1003   12.3637   27.2364 H   0  0  0  0  0  0  0  0  0  0  0  0  # atno 2    bound_to 1    AM5 OFF
  -22.9311   12.2141   28.3501 H   0  0  0  0  0  0  0  0  0  0  0  0  # atno 3    bound_to 1    AM5 OFF
  -24.3633   12.8687   28.7609 LP  0  0  0  0  0  0  0  0  0  0  0  0  # atno 4    bound_to 1    AM5 OFF
  -23.3356   13.6883   27.7920 LP  0  0  0  0  0  0  0  0  0  0  0  0  # atno 5    bound_to 1    AM5 OFF
  -16.9520   11.2350   21.5950 O.3 0  0  0  0  0  0  0  0  0  0  0  0  # atno 1    bound_to 2    3    AM6 ON 
  -16.3848   12.0493   21.6298 H   0  0  0  0  0  0  0  0  0  0  0  0  # atno 2    bound_to 1    AM6 ON 
  -16.9918   10.8990   20.6613 H   0  0  0  0  0  0  0  0  0  0  0  0  # atno 3    bound_to 1    AM6 ON 
  -17.8750   11.4580   21.9087 LP  0  0  0  0  0  0  0  0  0  0  0  0  # atno 4    bound_to 1    AM6 ON 
  -16.5601   10.5303   22.1864 LP  0  0  0  0  0  0  0  0  0  0  0  0  # atno 5    bound_to 1    AM6 ON 
  -14.9200   12.9840   21.7870 O.3 0  0  0  0  0  0  0  0  0  0  0  0  # atno 1    bound_to 2    3    AM7 ON 
  -14.0289   12.5479   21.7443 H   0  0  0  0  0  0  0  0  0  0  0  0  # atno 2    bound_to 1    AM7 ON 
  -14.8374   13.8616   22.2445 H   0  0  0  0  0  0  0  0  0  0  0  0  # atno 3    bound_to 1    AM7 ON 
  -15.5526   12.4007   22.2965 LP  0  0  0  0  0  0  0  0  0  0  0  0  # atno 4    bound_to 1    AM7 ON 
  -15.2679   13.1229   20.8598 LP  0  0  0  0  0  0  0  0  0  0  0  0  # atno 5    bound_to 1    AM7 ON 

> <Gold.Score>
     Score         DG    S(hbond)    S(metal)    S(lipo)     H(rot)  DE(clash)    DE(int)    S(bar)      intcor
     50.86     -51.72      14.83        0.00     104.73       1.39       0.39       0.47      12.00       0.99

> <Gold.Chemscore.Fitness>
50.8614

> <Gold.Chemscore.DG>
-51.7219

> <Gold.Chemscore.ZeroCoef>
-5.4800

> <Gold.Chemscore.Hbond>
14.8333

> <Gold.Chemscore.Metal>
0.0000

> <Gold.Chemscore.Lipo>
104.7300

> <Gold.Chemscore.Internal_Hbond>
0.0000

> <Gold.Chemscore.DEClash>
0.3871

> <Gold.Chemscore.DEInternal>
0.4734

> <Gold.Chemscore.Rot>
1.3886

> <Gold.Chemscore.Internal.Correction>
0.9866

> <Gold.Chemscore.SBar>
12.0000

> <Gold.Chemscore.Hbonds>
donor molecule, donor type, donor heavy atom, donor atom, acceptor molecule, acceptor atom, score
      L1  H     4    19       P1   695  0.91
      L1  H    15    26       P1   238  0.99
     AM1  H     1     2      AM6     1  0.75
     AM1  H     1     3       L1    13  1.00
     AM2  H     1     3       P1   358  0.93
     AM3  H     1     2       L1    13  0.99
     AM3  H     1     3       P1   701  0.80
     AM4  H     1     2       P1   238  1.00
     AM4  H     1     3       P1   267  0.94
     AM6  H     1     2      AM7     1  0.97
     AM6  H     1     3       P1   634  0.97
     AM7  H     1     2       P1   419  0.93
     AM7  H     1     3      AM4     1  0.98
      P1  H   358  1251      AM1     1  0.87
      P1  H   416  1258      AM2     1  0.87
      P1  H   669  1470      AM3     1  0.95

> <Gold.Chemscore.Hbond.Weighted>
-49.5433

> <Gold.Chemscore.Metal.Weighted>
-0.0000

> <Gold.Chemscore.Lipo.Weighted>
-12.2534

> <Gold.Chemscore.Internal_Hbond.Weighted>
0.0000

> <Gold.Chemscore.DEClash.Weighted>
0.3871

> <Gold.Chemscore.DEInternal.Weighted>
0.4734

> <Gold.Chemscore.Rot.Weighted>
3.5548

> <Gold.Chemscore.Internal.Correction.Weighted>
0.9866

