#       Name:                F274-2BCB5780A89ECBFE-2BCB5780A89ECBFE-NMX
#       Creating user name   iorga
#       Creation time:       Wed Nov 27 15:27:18 2019


#       File generated by GOLD software.
#

@<TRIPOS>MOLECULE
F274-2BCB5780A89ECBFE-2BCB5780A89ECBFE-NMX|ligands_smiles_3D-hash|mol2|283|dock15
    32    33     1
SMALL
NO_CHARGES


@<TRIPOS>ATOM
      1 C1         -24.3490  15.3273  30.4695 C.3            1 <1>                0.0000
      2 C2         -23.5653  14.5281  29.4700 C.2            1 <1>                0.0000
      3 C3         -22.4524  14.9420  28.6888 C.2            1 <1>                0.0000
      4 C4         -22.1354  13.8302  27.9584 C.2            1 <1>                0.0000
      5 C5         -21.0846  13.5306  26.9345 C.3            1 <1>                0.0000
      6 N6         -19.7779  13.2188  27.5242 N.am           1 <1>                0.0000
      7 N7         -19.6812  13.5111  28.8745 N.2            1 <1>                0.0000
      8 C8         -18.5932  13.2735  29.5310 C.2            1 <1>                0.0000
      9 C9         -18.5735  13.6183  30.9907 C.3            1 <1>                0.0000
     10 C10        -17.4552  12.6948  28.8421 C.2            1 <1>                0.0000
     11 C11        -17.5537  12.4090  27.5261 C.2            1 <1>                0.0000
     12 C12        -18.7798  12.6664  26.7738 C.2            1 <1>                0.0000
     13 O13        -18.9059  12.4052  25.5777 O.2            1 <1>                0.0000
     14 O14        -22.9873  12.8172  28.2627 O.3            1 <1>                0.0000
     15 N15        -23.8945  13.2706  29.2266 N.2            1 <1>                0.0000
     16 H16        -23.6970  15.9954  31.0324 H              1 <1>                0.0000
     17 H17        -25.1024  15.9391  29.9735 H              1 <1>                0.0000
     18 H18        -24.8609  14.6844  31.1866 H              1 <1>                0.0000
     19 H19        -21.9616  15.9038  28.6677 H              1 <1>                0.0000
     20 H20        -20.9919  14.3854  26.2625 H              1 <1>                0.0000
     21 H21        -21.4158  12.7070  26.2997 H              1 <1>                0.0000
     22 H22        -17.6415  13.3004  31.4587 H              1 <1>                0.0000
     23 H23        -18.6706  14.6947  31.1359 H              1 <1>                0.0000
     24 H24        -19.3941  13.1298  31.5172 H              1 <1>                0.0000
     25 H25        -16.5417  12.4979  29.3839 H              1 <1>                0.0000
     26 H26        -16.7058  11.9781  27.0143 H              1 <1>                0.0000
     27 ****       -20.4649  13.9120  29.3488 LP             1 <1>                0.0000
     28 ****       -19.7699  12.5975  25.1123 LP             1 <1>                0.0000
     29 ****       -18.1444  12.0007  25.0713 LP             1 <1>                0.0000
     30 ****       -22.4716  12.0406  28.6244 LP             1 <1>                0.0000
     31 ****       -23.4821  12.5349  27.4408 LP             1 <1>                0.0000
     32 ****       -24.6389  12.7505  29.6454 LP             1 <1>                0.0000
@<TRIPOS>BOND
    1    1    2 1     
    2    1   16 1     
    3    1   17 1     
    4    1   18 1     
    5    2   15 2     
    6    2    3 1     
    7    3    4 2     
    8    3   19 1     
    9    4    5 1     
   10    4   14 1     
   11    5    6 1     
   12    5   20 1     
   13    5   21 1     
   14    6   12 am    
   15    6    7 1     
   16    7    8 2     
   17    8    9 1     
   18    8   10 1     
   19    9   22 1     
   20    9   23 1     
   21    9   24 1     
   22   10   11 2     
   23   10   25 1     
   24   11   12 1     
   25   11   26 1     
   26   12   13 2     
   27   14   15 1     
   28    7   27 1     
   29   13   28 1     
   30   13   29 1     
   31   14   30 1     
   32   14   31 1     
   33   15   32 1     
@<TRIPOS>SUBSTRUCTURE
      1 ****           1
@<TRIPOS>SET
LONE_PAIRS      STATIC     ATOMS    <user>   **** ""
6 27 28 29 30 31 32
ATOM$BLUE        STATIC     ATOMS    COLORGROUP SYSTEM
6 27 28 29 30 31 32
@<TRIPOS>COMMENT
> <Gold.Version>
5.7.1

> <Gold.Id.Protein>
5ENC|5ENC_protein|mol2

> <Gold.Protein.RotatedTorsions>
[ 1501  701  700  697 ] final -106.20 input   60.00 | X-H torsion
[ 1497  695  694  692 ] final  100.13 input   60.00 | X-H torsion
[ 1251  358  357  355 ] final   -1.95 input   60.00 | X-H torsion
[ 1470  669  668  665 ] final   41.27 input   60.00 | X-H torsion

> <Gold.Protein.ActiveResidues>
 PRO28   PHE29   GLN31   PRO32   VAL33   TYR38   TYR41   PRO48   MET49   ASP50  
 ILE76   ASN79   SER80   TYR83   THR84   ILE91  

> <Gold.Protein.RotatedAtoms>
  -16.3705    9.5466   24.7102 H   0  0  0  0  0  0  0  0  0  0  0  0  # atno 1251 bound_to 358 
  -21.6483   11.0822   22.8723 H   0  0  0  0  0  0  0  0  0  0  0  0  # atno 1470 bound_to 669 
  -18.3012   10.4093   32.2079 H   0  0  0  0  0  0  0  0  0  0  0  0  # atno 1497 bound_to 695 
  -23.3793   11.3424   27.0497 H   0  0  0  0  0  0  0  0  0  0  0  0  # atno 1501 bound_to 701 
  -22.3650   11.2345   25.7818 LP  0  0  0  0  0  0  0  0  0  0  0  0  # atno 2046 bound_to 701 
  -22.5055    9.9878   26.8271 LP  0  0  0  0  0  0  0  0  0  0  0  0  # atno 2047 bound_to 701 
  -18.9542    9.0114   32.7253 LP  0  0  0  0  0  0  0  0  0  0  0  0  # atno 2052 bound_to 695 
  -19.9079   10.3071   32.4453 LP  0  0  0  0  0  0  0  0  0  0  0  0  # atno 2053 bound_to 695 
  -15.1249    8.5346   24.4409 LP  0  0  0  0  0  0  0  0  0  0  0  0  # atno 2056 bound_to 358 
  -14.8853   10.1499   24.4302 LP  0  0  0  0  0  0  0  0  0  0  0  0  # atno 2057 bound_to 358 

> <Gold.Protein.RotatedWaterAtoms>
  -17.7040   10.2320   24.0390 O.3 0  0  0  0  0  0  0  0  0  0  0  0  # atno 1    bound_to 2    3    AM1 ON 
  -18.3302   10.7692   24.5916 H   0  0  0  0  0  0  0  0  0  0  0  0  # atno 2    bound_to 1    AM1 ON 
  -17.6475   10.6232   23.1279 H   0  0  0  0  0  0  0  0  0  0  0  0  # atno 3    bound_to 1    AM1 ON 
  -18.0368    9.2910   23.9777 LP  0  0  0  0  0  0  0  0  0  0  0  0  # atno 4    bound_to 1    AM1 ON 
  -16.7975   10.2381   24.4612 LP  0  0  0  0  0  0  0  0  0  0  0  0  # atno 5    bound_to 1    AM1 ON 
  -13.7450   10.2720   23.0540 O.3 0  0  0  0  0  0  0  0  0  0  0  0  # atno 1    bound_to 2    3    AM2 ON 
  -13.7289   10.0677   24.0256 H   0  0  0  0  0  0  0  0  0  0  0  0  # atno 2    bound_to 1    AM2 ON 
  -14.3454   11.0456   22.8883 H   0  0  0  0  0  0  0  0  0  0  0  0  # atno 3    bound_to 1    AM2 ON 
  -14.0812    9.4755   22.5514 LP  0  0  0  0  0  0  0  0  0  0  0  0  # atno 4    bound_to 1    AM2 ON 
  -12.8205   10.4953   22.7449 LP  0  0  0  0  0  0  0  0  0  0  0  0  # atno 5    bound_to 1    AM2 ON 
  -21.1690   11.6250   24.3940 O.3 0  0  0  0  0  0  0  0  0  0  0  0  # atno 1    bound_to 2    3    AM3 ON 
  -21.5767   11.3632   25.2607 H   0  0  0  0  0  0  0  0  0  0  0  0  # atno 2    bound_to 1    AM3 ON 
  -20.2651   12.0039   24.5544 H   0  0  0  0  0  0  0  0  0  0  0  0  # atno 3    bound_to 1    AM3 ON 
  -21.7440   12.3115   23.9490 LP  0  0  0  0  0  0  0  0  0  0  0  0  # atno 4    bound_to 1    AM3 ON 
  -21.0935   10.8207   23.8046 LP  0  0  0  0  0  0  0  0  0  0  0  0  # atno 5    bound_to 1    AM3 ON 
  -14.6550   15.1580   23.4130 O.3 0  0  0  0  0  0  0  0  0  0  0  0  # atno 1    bound_to 2    3    AM4 ON 
  -15.4038   15.8084   23.4612 H   0  0  0  0  0  0  0  0  0  0  0  0  # atno 2    bound_to 1    AM4 ON 
  -13.8088   15.6074   23.6745 H   0  0  0  0  0  0  0  0  0  0  0  0  # atno 3    bound_to 1    AM4 ON 
  -14.5737   14.8120   22.4783 LP  0  0  0  0  0  0  0  0  0  0  0  0  # atno 4    bound_to 1    AM4 ON 
  -14.8343   14.3965   24.0359 LP  0  0  0  0  0  0  0  0  0  0  0  0  # atno 5    bound_to 1    AM4 ON 
  -23.6820   12.7820   28.0340 O.3 0  0  0  0  0  0  0  0  0  0  0  0  # atno 1    bound_to 2    3    AM5 OFF
  -24.5678   12.5831   28.4364 H   0  0  0  0  0  0  0  0  0  0  0  0  # atno 2    bound_to 1    AM5 OFF
  -23.7927   13.4411   27.2994 H   0  0  0  0  0  0  0  0  0  0  0  0  # atno 3    bound_to 1    AM5 OFF
  -23.2849   11.9398   27.6692 LP  0  0  0  0  0  0  0  0  0  0  0  0  # atno 4    bound_to 1    AM5 OFF
  -23.0757   13.1608   28.7332 LP  0  0  0  0  0  0  0  0  0  0  0  0  # atno 5    bound_to 1    AM5 OFF
  -16.9520   11.2350   21.5950 O.3 0  0  0  0  0  0  0  0  0  0  0  0  # atno 1    bound_to 2    3    AM6 ON 
  -17.2582   10.9969   20.6809 H   0  0  0  0  0  0  0  0  0  0  0  0  # atno 2    bound_to 1    AM6 ON 
  -16.4042   12.0625   21.5555 H   0  0  0  0  0  0  0  0  0  0  0  0  # atno 3    bound_to 1    AM6 ON 
  -16.4011   10.4880   21.9672 LP  0  0  0  0  0  0  0  0  0  0  0  0  # atno 4    bound_to 1    AM6 ON 
  -17.7461   11.3886   22.1831 LP  0  0  0  0  0  0  0  0  0  0  0  0  # atno 5    bound_to 1    AM6 ON 
  -14.9200   12.9840   21.7870 O.3 0  0  0  0  0  0  0  0  0  0  0  0  # atno 1    bound_to 2    3    AM7 ON 
  -14.7054   13.6016   22.5344 H   0  0  0  0  0  0  0  0  0  0  0  0  # atno 2    bound_to 1    AM7 ON 
  -14.0915   12.7778   21.2798 H   0  0  0  0  0  0  0  0  0  0  0  0  # atno 3    bound_to 1    AM7 ON 
  -15.5849   13.4162   21.1778 LP  0  0  0  0  0  0  0  0  0  0  0  0  # atno 4    bound_to 1    AM7 ON 
  -15.3054   12.1375   22.1543 LP  0  0  0  0  0  0  0  0  0  0  0  0  # atno 5    bound_to 1    AM7 ON 

> <Gold.Score>
     Score         DG    S(hbond)    S(metal)    S(lipo)     H(rot)  DE(clash)    DE(int)    S(bar)      intcor
     46.27     -46.82      13.53        0.00      96.47       1.23       0.11       0.43      12.00       0.00

> <Gold.Chemscore.Fitness>
46.2737

> <Gold.Chemscore.DG>
-46.8158

> <Gold.Chemscore.ZeroCoef>
-5.4800

> <Gold.Chemscore.Hbond>
13.5305

> <Gold.Chemscore.Metal>
0.0000

> <Gold.Chemscore.Lipo>
96.4723

> <Gold.Chemscore.Internal_Hbond>
0.0000

> <Gold.Chemscore.DEClash>
0.1074

> <Gold.Chemscore.DEInternal>
0.4347

> <Gold.Chemscore.Rot>
1.2279

> <Gold.Chemscore.Internal.Correction>
0.0003

> <Gold.Chemscore.SBar>
12.0000

> <Gold.Chemscore.Hbonds>
donor molecule, donor type, donor heavy atom, donor atom, acceptor molecule, acceptor atom, score
     AM1  H     1     2       L1    13  0.97
     AM1  H     1     3      AM6     1  0.98
     AM2  H     1     2       P1   358  0.18
     AM3  H     1     2       P1   701  0.74
     AM3  H     1     3       L1    13  0.97
     AM4  H     1     2       P1   238  1.00
     AM4  H     1     3       P1   267  1.00
     AM6  H     1     2       P1   634  0.93
     AM6  H     1     3      AM7     1  0.96
     AM7  H     1     2      AM4     1  0.98
     AM7  H     1     3       P1   419  0.99
      P1  H   701  1501       L1    14  0.87
      P1  H   358  1251      AM1     1  0.92
      P1  H   416  1258      AM2     1  0.86
      P1  H   669  1470      AM3     1  0.98
      P1  H   663  1465      AM2     1  0.20

> <Gold.Chemscore.Hbond.Weighted>
-45.1920

> <Gold.Chemscore.Metal.Weighted>
-0.0000

> <Gold.Chemscore.Lipo.Weighted>
-11.2873

> <Gold.Chemscore.Internal_Hbond.Weighted>
0.0000

> <Gold.Chemscore.DEClash.Weighted>
0.1074

> <Gold.Chemscore.DEInternal.Weighted>
0.4347

> <Gold.Chemscore.Rot.Weighted>
3.1434

> <Gold.Chemscore.Internal.Correction.Weighted>
0.0003

