#       Name:                F14-6E1EA1A20D8AEF2E-6E1EA1A20D8AEF2E-NMX
#       Creating user name   iorga
#       Creation time:       Wed Nov 27 12:07:03 2019


#       File generated by GOLD software.
#

@<TRIPOS>MOLECULE
F14-6E1EA1A20D8AEF2E-6E1EA1A20D8AEF2E-NMX|ligands_smiles_3D-hash|mol2|14|dock6
    22    22     1
SMALL
NO_CHARGES


@<TRIPOS>ATOM
      1 Br1        -18.9687  13.6711  32.4143 Br             1 <1>                0.0000
      2 C2         -18.2834  14.0546  30.6814 C.2            1 <1>                0.0000
      3 C3         -18.6168  13.4326  29.5174 C.2            1 <1>                0.0000
      4 N4         -17.8615  14.0524  28.5406 N.pl3          1 <1>                0.0000
      5 C5         -17.8257  13.7669  27.1187 C.3            1 <1>                0.0000
      6 C6         -18.8505  12.6953  26.7217 C.3            1 <1>                0.0000
      7 O7         -18.8446  12.5273  25.3130 O.3            1 <1>                0.0000
      8 C8         -18.4154  13.6916  24.6294 C.3            1 <1>                0.0000
      9 N9         -17.0702  15.0329  29.0462 N.2            1 <1>                0.0000
     10 C10        -17.3222  15.0423  30.3474 C.2            1 <1>                0.0000
     11 H11        -19.3012  12.6250  29.3034 H              1 <1>                0.0000
     12 H12        -16.8189  13.4452  26.8485 H              1 <1>                0.0000
     13 H13        -18.0169  14.6923  26.5742 H              1 <1>                0.0000
     14 H14        -19.8459  12.9873  27.0607 H              1 <1>                0.0000
     15 H15        -18.6038  11.7512  27.2094 H              1 <1>                0.0000
     16 H16        -18.4428  13.5156  23.5541 H              1 <1>                0.0000
     17 H17        -19.0642  14.5406  24.8483 H              1 <1>                0.0000
     18 H18        -17.3924  13.9536  24.9018 H              1 <1>                0.0000
     19 H19        -16.8110  15.7460  30.9874 H              1 <1>                0.0000
     20 ****       -19.7717  12.3028  25.0129 LP             1 <1>                0.0000
     21 ****       -18.2281  11.7745  25.0824 LP             1 <1>                0.0000
     22 ****       -16.4348  15.6207  28.5454 LP             1 <1>                0.0000
@<TRIPOS>BOND
    1    1    2 1     
    2    2   10 1     
    3    2    3 2     
    4    3    4 1     
    5    3   11 1     
    6    4    5 1     
    7    4    9 1     
    8    5    6 1     
    9    5   12 1     
   10    5   13 1     
   11    6    7 1     
   12    6   14 1     
   13    6   15 1     
   14    7    8 1     
   15    8   16 1     
   16    8   17 1     
   17    8   18 1     
   18    9   10 2     
   19   10   19 1     
   20    7   20 1     
   21    7   21 1     
   22    9   22 1     
@<TRIPOS>SUBSTRUCTURE
      1 ****           1
@<TRIPOS>SET
LONE_PAIRS      STATIC     ATOMS    <user>   **** ""
3 20 21 22
ATOM$BLUE        STATIC     ATOMS    COLORGROUP SYSTEM
3 20 21 22
@<TRIPOS>COMMENT
> <Gold.Version>
5.7.1

> <Gold.Id.Protein>
5ENC|5ENC_protein|mol2

> <Gold.Protein.RotatedTorsions>
[ 1501  701  700  697 ] final -101.63 input   60.00 | X-H torsion
[ 1497  695  694  692 ] final   75.04 input   60.00 | X-H torsion
[ 1251  358  357  355 ] final   -3.30 input   60.00 | X-H torsion
[ 1470  669  668  665 ] final   43.34 input   60.00 | X-H torsion

> <Gold.Protein.ActiveResidues>
 PRO28   PHE29   GLN31   PRO32   VAL33   TYR38   TYR41   PRO48   MET49   ASP50  
 ILE76   ASN79   SER80   TYR83   THR84   ILE91  

> <Gold.Protein.RotatedAtoms>
  -16.3735    9.5248   24.7103 H   0  0  0  0  0  0  0  0  0  0  0  0  # atno 1251 bound_to 358 
  -21.6310   11.1110   22.8687 H   0  0  0  0  0  0  0  0  0  0  0  0  # atno 1470 bound_to 669 
  -18.1403   10.0472   32.2995 H   0  0  0  0  0  0  0  0  0  0  0  0  # atno 1497 bound_to 695 
  -23.3838   11.2839   27.0959 H   0  0  0  0  0  0  0  0  0  0  0  0  # atno 1501 bound_to 701 
  -22.4065   11.2958   25.7948 LP  0  0  0  0  0  0  0  0  0  0  0  0  # atno 2046 bound_to 701 
  -22.4595    9.9854   26.7677 LP  0  0  0  0  0  0  0  0  0  0  0  0  # atno 2047 bound_to 701 
  -19.3582    9.0702   32.7582 LP  0  0  0  0  0  0  0  0  0  0  0  0  # atno 2052 bound_to 695 
  -19.6660   10.6129   32.3202 LP  0  0  0  0  0  0  0  0  0  0  0  0  # atno 2053 bound_to 695 
  -15.1047    8.5431   24.4372 LP  0  0  0  0  0  0  0  0  0  0  0  0  # atno 2056 bound_to 358 
  -14.9025   10.1635   24.4339 LP  0  0  0  0  0  0  0  0  0  0  0  0  # atno 2057 bound_to 358 

> <Gold.Protein.RotatedWaterAtoms>
  -17.7040   10.2320   24.0390 O.3 0  0  0  0  0  0  0  0  0  0  0  0  # atno 1    bound_to 2    3    AM1 ON 
  -17.7214   10.5625   23.1028 H   0  0  0  0  0  0  0  0  0  0  0  0  # atno 2    bound_to 1    AM1 ON 
  -18.3084   10.7879   24.5976 H   0  0  0  0  0  0  0  0  0  0  0  0  # atno 3    bound_to 1    AM1 ON 
  -16.7718   10.2912   24.3961 LP  0  0  0  0  0  0  0  0  0  0  0  0  # atno 4    bound_to 1    AM1 ON 
  -18.0100    9.2803   24.0623 LP  0  0  0  0  0  0  0  0  0  0  0  0  # atno 5    bound_to 1    AM1 ON 
  -13.7450   10.2720   23.0540 O.3 0  0  0  0  0  0  0  0  0  0  0  0  # atno 1    bound_to 2    3    AM2 ON 
  -14.1610    9.7537   23.7918 H   0  0  0  0  0  0  0  0  0  0  0  0  # atno 2    bound_to 1    AM2 ON 
  -14.2318   11.1297   22.9366 H   0  0  0  0  0  0  0  0  0  0  0  0  # atno 3    bound_to 1    AM2 ON 
  -13.7927    9.7429   22.2068 LP  0  0  0  0  0  0  0  0  0  0  0  0  # atno 4    bound_to 1    AM2 ON 
  -12.7882   10.4595   23.2764 LP  0  0  0  0  0  0  0  0  0  0  0  0  # atno 5    bound_to 1    AM2 ON 
  -21.1690   11.6250   24.3940 O.3 0  0  0  0  0  0  0  0  0  0  0  0  # atno 1    bound_to 2    3    AM3 ON 
  -21.6745   11.4107   25.2214 H   0  0  0  0  0  0  0  0  0  0  0  0  # atno 2    bound_to 1    AM3 ON 
  -20.2048   11.7226   24.6111 H   0  0  0  0  0  0  0  0  0  0  0  0  # atno 3    bound_to 1    AM3 ON 
  -21.5117   12.4807   24.0062 LP  0  0  0  0  0  0  0  0  0  0  0  0  # atno 4    bound_to 1    AM3 ON 
  -21.2882   10.8869   23.7300 LP  0  0  0  0  0  0  0  0  0  0  0  0  # atno 5    bound_to 1    AM3 ON 
  -14.6550   15.1580   23.4130 O.3 0  0  0  0  0  0  0  0  0  0  0  0  # atno 1    bound_to 2    3    AM4 ON 
  -13.7820   15.5984   23.5862 H   0  0  0  0  0  0  0  0  0  0  0  0  # atno 2    bound_to 1    AM4 ON 
  -15.3885   15.8149   23.5423 H   0  0  0  0  0  0  0  0  0  0  0  0  # atno 3    bound_to 1    AM4 ON 
  -14.7752   14.3949   24.0480 LP  0  0  0  0  0  0  0  0  0  0  0  0  # atno 4    bound_to 1    AM4 ON 
  -14.6753   14.8162   22.4734 LP  0  0  0  0  0  0  0  0  0  0  0  0  # atno 5    bound_to 1    AM4 ON 
  -23.6820   12.7820   28.0340 O.3 0  0  0  0  0  0  0  0  0  0  0  0  # atno 1    bound_to 2    3    AM5 ON 
  -24.2062   12.8347   28.8757 H   0  0  0  0  0  0  0  0  0  0  0  0  # atno 2    bound_to 1    AM5 ON 
  -23.2880   13.6712   27.8332 H   0  0  0  0  0  0  0  0  0  0  0  0  # atno 3    bound_to 1    AM5 ON 
  -24.2830   12.5066   27.2837 LP  0  0  0  0  0  0  0  0  0  0  0  0  # atno 4    bound_to 1    AM5 ON 
  -22.9499   12.1090   28.1388 LP  0  0  0  0  0  0  0  0  0  0  0  0  # atno 5    bound_to 1    AM5 ON 
  -16.9520   11.2350   21.5950 O.3 0  0  0  0  0  0  0  0  0  0  0  0  # atno 1    bound_to 2    3    AM6 ON 
  -17.1286   10.8828   20.6835 H   0  0  0  0  0  0  0  0  0  0  0  0  # atno 2    bound_to 1    AM6 ON 
  -16.3396   12.0146   21.5358 H   0  0  0  0  0  0  0  0  0  0  0  0  # atno 3    bound_to 1    AM6 ON 
  -16.5290   10.5205   22.1523 LP  0  0  0  0  0  0  0  0  0  0  0  0  # atno 4    bound_to 1    AM6 ON 
  -17.8138   11.5192   22.0153 LP  0  0  0  0  0  0  0  0  0  0  0  0  # atno 5    bound_to 1    AM6 ON 
  -14.9200   12.9840   21.7870 O.3 0  0  0  0  0  0  0  0  0  0  0  0  # atno 1    bound_to 2    3    AM7 ON 
  -14.7990   13.6931   22.4716 H   0  0  0  0  0  0  0  0  0  0  0  0  # atno 2    bound_to 1    AM7 ON 
  -14.0387   12.7503   21.3932 H   0  0  0  0  0  0  0  0  0  0  0  0  # atno 3    bound_to 1    AM7 ON 
  -15.5293   13.3162   21.0670 LP  0  0  0  0  0  0  0  0  0  0  0  0  # atno 4    bound_to 1    AM7 ON 
  -15.3198   12.1730   22.2141 LP  0  0  0  0  0  0  0  0  0  0  0  0  # atno 5    bound_to 1    AM7 ON 

> <Gold.Score>
     Score         DG    S(hbond)    S(metal)    S(lipo)     H(rot)  DE(clash)    DE(int)    S(bar)      intcor
     45.36     -45.60      13.97        0.00      92.82       1.33       0.00       0.24      14.00       0.00

> <Gold.Chemscore.Fitness>
45.3595

> <Gold.Chemscore.DG>
-45.6041

> <Gold.Chemscore.ZeroCoef>
-5.4800

> <Gold.Chemscore.Hbond>
13.9730

> <Gold.Chemscore.Metal>
0.0000

> <Gold.Chemscore.Lipo>
92.8173

> <Gold.Chemscore.Internal_Hbond>
0.0000

> <Gold.Chemscore.DEClash>
0.0000

> <Gold.Chemscore.DEInternal>
0.2446

> <Gold.Chemscore.Rot>
1.3302

> <Gold.Chemscore.Internal.Correction>
0.0004

> <Gold.Chemscore.SBar>
14.0000

> <Gold.Chemscore.Hbonds>
donor molecule, donor type, donor heavy atom, donor atom, acceptor molecule, acceptor atom, score
     AM1  H     1     2      AM6     1  0.97
     AM1  H     1     3       L1     7  0.87
     AM2  H     1     2       P1   358  0.93
     AM3  H     1     2       P1   701  0.69
     AM3  H     1     3       L1     7  0.83
     AM4  H     1     2       P1   267  1.00
     AM4  H     1     3       P1   238  1.00
     AM6  H     1     2       P1   634  0.99
     AM6  H     1     3      AM7     1  0.98
     AM7  H     1     2      AM4     1  0.99
     AM7  H     1     3       P1   419  1.00
      P1  H   701  1501      AM5     1  0.98
      P1  H   358  1251      AM1     1  0.93
      P1  H   416  1258      AM2     1  0.86
      P1  H   669  1470      AM3     1  0.96

> <Gold.Chemscore.Hbond.Weighted>
-46.6698

> <Gold.Chemscore.Metal.Weighted>
-0.0000

> <Gold.Chemscore.Lipo.Weighted>
-10.8596

> <Gold.Chemscore.Internal_Hbond.Weighted>
0.0000

> <Gold.Chemscore.DEClash.Weighted>
0.0000

> <Gold.Chemscore.DEInternal.Weighted>
0.2446

> <Gold.Chemscore.Rot.Weighted>
3.4053

> <Gold.Chemscore.Internal.Correction.Weighted>
0.0004

