#       Name:                F529-5319995298801764-5319995298801764-NMX
#       Creating user name   iorga
#       Creation time:       Wed Nov 27 16:54:50 2019


#       File generated by GOLD software.
#

@<TRIPOS>MOLECULE
F529-5319995298801764-5319995298801764-NMX|ligands_smiles_3D-hash|mol2|544|dock15
    23    23     1
SMALL
NO_CHARGES


@<TRIPOS>ATOM
      1 C1         -16.3577  17.7296  26.5630 C.3            1 <1>                0.0000
      2 N2         -16.8506  16.3987  26.2488 N.pl3          1 <1>                0.0000
      3 C3         -16.9770  15.4078  27.2369 C.ar           1 <1>                0.0000
      4 C4         -16.6006  15.6583  28.5799 C.ar           1 <1>                0.0000
      5 C5         -16.7494  14.6671  29.5684 C.ar           1 <1>                0.0000
      6 C6         -17.2837  13.4112  29.2328 C.ar           1 <1>                0.0000
      7 C7         -17.6638  13.1442  27.9054 C.ar           1 <1>                0.0000
      8 C8         -17.5014  14.1289  26.9069 C.ar           1 <1>                0.0000
      9 S9         -18.0434  13.7245  25.2344 S.o2           1 <1>                0.0000
     10 O10        -16.9051  13.8808  24.3152 O.2            1 <1>                0.0000
     11 O11        -18.7541  12.4368  25.2780 O.2            1 <1>                0.0000
     12 C12        -19.2830  15.0275  24.8455 C.3            1 <1>                0.0000
     13 H13        -16.2966  18.3256  25.6525 H              1 <1>                0.0000
     14 H14        -17.0290  18.2377  27.2558 H              1 <1>                0.0000
     15 H15        -15.3615  17.6825  27.0040 H              1 <1>                0.0000
     16 H16        -16.9515  16.1413  25.2764 H              1 <1>                0.0000
     17 H17        -16.1964  16.6136  28.8789 H              1 <1>                0.0000
     18 H18        -16.4586  14.8749  30.5876 H              1 <1>                0.0000
     19 H19        -17.4051  12.6538  29.9931 H              1 <1>                0.0000
     20 H20        -18.0789  12.1768  27.6651 H              1 <1>                0.0000
     21 H21        -19.6990  14.8476  23.8544 H              1 <1>                0.0000
     22 H22        -20.0833  15.0002  25.5848 H              1 <1>                0.0000
     23 H23        -18.8058  16.0070  24.8648 H              1 <1>                0.0000
@<TRIPOS>BOND
    1    1    2 1     
    2    1   13 1     
    3    1   14 1     
    4    1   15 1     
    5    2    3 1     
    6    2   16 1     
    7    3    8 ar    
    8    3    4 ar    
    9    4    5 ar    
   10    4   17 1     
   11    5    6 ar    
   12    5   18 1     
   13    6    7 ar    
   14    6   19 1     
   15    7    8 ar    
   16    7   20 1     
   17    8    9 1     
   18    9   10 2     
   19    9   11 2     
   20    9   12 1     
   21   12   21 1     
   22   12   22 1     
   23   12   23 1     
@<TRIPOS>SUBSTRUCTURE
      1 ****           1
@<TRIPOS>SET
LONE_PAIRS      STATIC     ATOMS    <user>   **** ""
2 10 11
DONOR_HYDROGENS      STATIC     ATOMS    <user>   **** ""
1 16
ATOM$BLUE        STATIC     ATOMS    COLORGROUP SYSTEM
2 10 11
ATOM$RED        STATIC     ATOMS    COLORGROUP SYSTEM
1 16
@<TRIPOS>COMMENT
> <Gold.Version>
5.7.1

> <Gold.Id.Protein>
5ENC|5ENC_protein|mol2

> <Gold.Protein.RotatedTorsions>
[ 1501  701  700  697 ] final -101.30 input   60.00 | X-H torsion
[ 1497  695  694  692 ] final  -73.49 input   60.00 | X-H torsion
[ 1251  358  357  355 ] final   -1.32 input   60.00 | X-H torsion
[ 1470  669  668  665 ] final   62.97 input   60.00 | X-H torsion

> <Gold.Protein.ActiveResidues>
 PRO28   PHE29   GLN31   PRO32   VAL33   TYR38   TYR41   PRO48   MET49   ASP50  
 ILE76   ASN79   SER80   TYR83   THR84   ILE91  

> <Gold.Protein.RotatedAtoms>
  -16.3689    9.5569   24.7101 H   0  0  0  0  0  0  0  0  0  0  0  0  # atno 1251 bound_to 358 
  -21.4936   11.3851   22.7801 H   0  0  0  0  0  0  0  0  0  0  0  0  # atno 1470 bound_to 669 
  -19.7391    9.3313   32.7233 H   0  0  0  0  0  0  0  0  0  0  0  0  # atno 1497 bound_to 695 
  -23.3839   11.2795   27.0991 H   0  0  0  0  0  0  0  0  0  0  0  0  # atno 1501 bound_to 701 
  -22.4096   11.3001   25.7959 LP  0  0  0  0  0  0  0  0  0  0  0  0  # atno 2046 bound_to 701 
  -22.4562    9.9854   26.7633 LP  0  0  0  0  0  0  0  0  0  0  0  0  # atno 2047 bound_to 701 
  -19.2537   10.7975   32.2109 LP  0  0  0  0  0  0  0  0  0  0  0  0  # atno 2052 bound_to 695 
  -18.1603    9.6066   32.4407 LP  0  0  0  0  0  0  0  0  0  0  0  0  # atno 2053 bound_to 695 
  -15.1344    8.5309   24.4427 LP  0  0  0  0  0  0  0  0  0  0  0  0  # atno 2056 bound_to 358 
  -14.8774   10.1434   24.4285 LP  0  0  0  0  0  0  0  0  0  0  0  0  # atno 2057 bound_to 358 

> <Gold.Protein.RotatedWaterAtoms>
  -17.7040   10.2320   24.0390 O.3 0  0  0  0  0  0  0  0  0  0  0  0  # atno 1    bound_to 2    3    AM1 ON 
  -17.6019   10.4462   23.0748 H   0  0  0  0  0  0  0  0  0  0  0  0  # atno 2    bound_to 1    AM1 ON 
  -18.2711   10.9221   24.4731 H   0  0  0  0  0  0  0  0  0  0  0  0  # atno 3    bound_to 1    AM1 ON 
  -16.8039   10.2180   24.4745 LP  0  0  0  0  0  0  0  0  0  0  0  0  # atno 4    bound_to 1    AM1 ON 
  -18.1359    9.3354   24.1374 LP  0  0  0  0  0  0  0  0  0  0  0  0  # atno 5    bound_to 1    AM1 ON 
  -13.7450   10.2720   23.0540 O.3 0  0  0  0  0  0  0  0  0  0  0  0  # atno 1    bound_to 2    3    AM2 ON 
  -14.2657    9.6979   23.6748 H   0  0  0  0  0  0  0  0  0  0  0  0  # atno 2    bound_to 1    AM2 ON 
  -14.1468   11.1798   23.0270 H   0  0  0  0  0  0  0  0  0  0  0  0  # atno 3    bound_to 1    AM2 ON 
  -13.7619    9.8726   22.1374 LP  0  0  0  0  0  0  0  0  0  0  0  0  # atno 4    bound_to 1    AM2 ON 
  -12.7992   10.3354   23.3726 LP  0  0  0  0  0  0  0  0  0  0  0  0  # atno 5    bound_to 1    AM2 ON 
  -21.1690   11.6250   24.3940 O.3 0  0  0  0  0  0  0  0  0  0  0  0  # atno 1    bound_to 2    3    AM3 ON 
  -21.8126   11.6897   25.1474 H   0  0  0  0  0  0  0  0  0  0  0  0  # atno 2    bound_to 1    AM3 ON 
  -20.2543   11.8309   24.7214 H   0  0  0  0  0  0  0  0  0  0  0  0  # atno 3    bound_to 1    AM3 ON 
  -21.4231   12.2790   23.6815 LP  0  0  0  0  0  0  0  0  0  0  0  0  # atno 4    bound_to 1    AM3 ON 
  -21.1878   10.6985   24.0181 LP  0  0  0  0  0  0  0  0  0  0  0  0  # atno 5    bound_to 1    AM3 ON 
  -14.6550   15.1580   23.4130 O.3 0  0  0  0  0  0  0  0  0  0  0  0  # atno 1    bound_to 2    3    AM4 ON 
  -15.3797   15.7870   23.6686 H   0  0  0  0  0  0  0  0  0  0  0  0  # atno 2    bound_to 1    AM4 ON 
  -13.7750   15.5536   23.6485 H   0  0  0  0  0  0  0  0  0  0  0  0  # atno 3    bound_to 1    AM4 ON 
  -14.6918   14.9895   22.4280 LP  0  0  0  0  0  0  0  0  0  0  0  0  # atno 4    bound_to 1    AM4 ON 
  -14.7745   14.2948   23.9035 LP  0  0  0  0  0  0  0  0  0  0  0  0  # atno 5    bound_to 1    AM4 ON 
  -23.6820   12.7820   28.0340 O.3 0  0  0  0  0  0  0  0  0  0  0  0  # atno 1    bound_to 2    3    AM5 ON 
  -23.1089   13.1613   28.7507 H   0  0  0  0  0  0  0  0  0  0  0  0  # atno 2    bound_to 1    AM5 ON 
  -24.4361   13.4016   27.8506 H   0  0  0  0  0  0  0  0  0  0  0  0  # atno 3    bound_to 1    AM5 ON 
  -24.0420   11.8968   28.3285 LP  0  0  0  0  0  0  0  0  0  0  0  0  # atno 4    bound_to 1    AM5 ON 
  -23.1398   12.6614   27.2024 LP  0  0  0  0  0  0  0  0  0  0  0  0  # atno 5    bound_to 1    AM5 ON 
  -16.9520   11.2350   21.5950 O.3 0  0  0  0  0  0  0  0  0  0  0  0  # atno 1    bound_to 2    3    AM6 ON 
  -17.1371   10.8915   20.6819 H   0  0  0  0  0  0  0  0  0  0  0  0  # atno 2    bound_to 1    AM6 ON 
  -16.2921   11.9754   21.5427 H   0  0  0  0  0  0  0  0  0  0  0  0  # atno 3    bound_to 1    AM6 ON 
  -16.5816   10.4976   22.1598 LP  0  0  0  0  0  0  0  0  0  0  0  0  # atno 4    bound_to 1    AM6 ON 
  -17.8005   11.5728   22.0024 LP  0  0  0  0  0  0  0  0  0  0  0  0  # atno 5    bound_to 1    AM6 ON 
  -14.9200   12.9840   21.7870 O.3 0  0  0  0  0  0  0  0  0  0  0  0  # atno 1    bound_to 2    3    AM7 ON 
  -14.9173   13.8521   22.2691 H   0  0  0  0  0  0  0  0  0  0  0  0  # atno 2    bound_to 1    AM7 ON 
  -13.9940   12.7569   21.5091 H   0  0  0  0  0  0  0  0  0  0  0  0  # atno 3    bound_to 1    AM7 ON 
  -15.5032   13.0539   20.9777 LP  0  0  0  0  0  0  0  0  0  0  0  0  # atno 4    bound_to 1    AM7 ON 
  -15.2719   12.2686   22.3906 LP  0  0  0  0  0  0  0  0  0  0  0  0  # atno 5    bound_to 1    AM7 ON 

> <Gold.Score>
     Score         DG    S(hbond)    S(metal)    S(lipo)     H(rot)  DE(clash)    DE(int)    S(bar)      intcor
     52.15     -52.41      14.80        0.00      98.16       0.00       0.24       0.02      14.00       1.07

> <Gold.Chemscore.Fitness>
52.1459

> <Gold.Chemscore.DG>
-52.4104

> <Gold.Chemscore.ZeroCoef>
-5.4800

> <Gold.Chemscore.Hbond>
14.8042

> <Gold.Chemscore.Metal>
0.0000

> <Gold.Chemscore.Lipo>
98.1568

> <Gold.Chemscore.Internal_Hbond>
0.0000

> <Gold.Chemscore.DEClash>
0.2449

> <Gold.Chemscore.DEInternal>
0.0196

> <Gold.Chemscore.Rot>
0.0000

> <Gold.Chemscore.Internal.Correction>
1.0689

> <Gold.Chemscore.SBar>
14.0000

> <Gold.Chemscore.Hbonds>
donor molecule, donor type, donor heavy atom, donor atom, acceptor molecule, acceptor atom, score
      L1  H     2    16       P1   238  0.80
     AM1  H     1     2      AM6     1  0.99
     AM1  H     1     3       L1    11  1.00
     AM2  H     1     2       P1   358  0.95
     AM3  H     1     2       P1   701  0.50
     AM3  H     1     3       L1    11  1.00
     AM4  H     1     2       P1   238  0.99
     AM4  H     1     3       P1   267  0.99
     AM6  H     1     2       P1   634  0.99
     AM6  H     1     3      AM7     1  0.99
     AM7  H     1     2      AM4     1  0.99
     AM7  H     1     3       P1   419  0.99
      P1  H   701  1501      AM5     1  0.98
      P1  H   358  1251      AM1     1  0.84
      P1  H   416  1258      AM2     1  0.85
      P1  H   669  1470      AM3     1  0.97

> <Gold.Chemscore.Hbond.Weighted>
-49.4460

> <Gold.Chemscore.Metal.Weighted>
-0.0000

> <Gold.Chemscore.Lipo.Weighted>
-11.4843

> <Gold.Chemscore.Internal_Hbond.Weighted>
0.0000

> <Gold.Chemscore.DEClash.Weighted>
0.2449

> <Gold.Chemscore.DEInternal.Weighted>
0.0196

> <Gold.Chemscore.Rot.Weighted>
0.0000

> <Gold.Chemscore.Internal.Correction.Weighted>
1.0689

