#       Name:                F421-11576369D61722DC-11576369D61722DC-NMX
#       Creating user name   iorga
#       Creation time:       Wed Nov 27 13:14:40 2019


#       File generated by GOLD software.
#

@<TRIPOS>MOLECULE
F421-11576369D61722DC-11576369D61722DC-NMX|ligands_smiles_3D-hash|mol2|433|dock27
    22    22     1
SMALL
NO_CHARGES


@<TRIPOS>ATOM
      1 C1         -17.5292  13.4900  29.1163 C.3            1 <1>                0.0000
      2 N2         -18.9385  13.6977  29.4570 N.am           1 <1>                0.0000
      3 C3         -19.2081  13.8360  30.8911 C.3            1 <1>                0.0000
      4 C4         -19.8889  13.6644  28.4906 C.2            1 <1>                0.0000
      5 O5         -21.0705  13.9333  28.7104 O.2            1 <1>                0.0000
      6 C6         -19.4869  13.3103  27.0872 C.2            1 <1>                0.0000
      7 C7         -18.8996  12.0828  26.6753 C.2            1 <1>                0.0000
      8 N8         -18.6020  12.1035  25.3832 N.2            1 <1>                0.0000
      9 N9         -18.9614  13.3433  24.9780 N.pl3          1 <1>                0.0000
     10 C10        -19.4862  14.1198  25.9878 C.2            1 <1>                0.0000
     11 H11        -17.2583  14.0033  28.1921 H              1 <1>                0.0000
     12 H12        -16.8644  13.8706  29.8925 H              1 <1>                0.0000
     13 H13        -17.3252  12.4264  28.9884 H              1 <1>                0.0000
     14 H14        -20.1248  13.3244  31.1865 H              1 <1>                0.0000
     15 H15        -18.4078  13.4029  31.4926 H              1 <1>                0.0000
     16 H16        -19.2917  14.8884  31.1629 H              1 <1>                0.0000
     17 H17        -18.6873  11.1974  27.2563 H              1 <1>                0.0000
     18 H18        -18.8312  13.6450  24.0227 H              1 <1>                0.0000
     19 H19        -19.7964  15.1430  25.8369 H              1 <1>                0.0000
     20 ****       -21.3620  14.1892  29.6321 LP             1 <1>                0.0000
     21 ****       -21.7384  13.8959  27.9670 LP             1 <1>                0.0000
     22 ****       -18.2027  11.3698  24.8334 LP             1 <1>                0.0000
@<TRIPOS>BOND
    1    1    2 1     
    2    1   11 1     
    3    1   12 1     
    4    1   13 1     
    5    2    3 1     
    6    2    4 am    
    7    3   14 1     
    8    3   15 1     
    9    3   16 1     
   10    4    5 2     
   11    4    6 1     
   12    6   10 2     
   13    6    7 1     
   14    7    8 2     
   15    7   17 1     
   16    8    9 1     
   17    9   10 1     
   18    9   18 1     
   19   10   19 1     
   20    5   20 1     
   21    5   21 1     
   22    8   22 1     
@<TRIPOS>SUBSTRUCTURE
      1 ****           1
@<TRIPOS>SET
LONE_PAIRS      STATIC     ATOMS    <user>   **** ""
3 20 21 22
DONOR_HYDROGENS      STATIC     ATOMS    <user>   **** ""
1 18
ATOM$BLUE        STATIC     ATOMS    COLORGROUP SYSTEM
3 20 21 22
ATOM$RED        STATIC     ATOMS    COLORGROUP SYSTEM
1 18
@<TRIPOS>COMMENT
> <Gold.Version>
5.7.1

> <Gold.Id.Protein>
5ENC|5ENC_protein|mol2

> <Gold.Protein.RotatedTorsions>
[ 1501  701  700  697 ] final -102.96 input   60.00 | X-H torsion
[ 1497  695  694  692 ] final -142.24 input   60.00 | X-H torsion
[ 1251  358  357  355 ] final   -7.65 input   60.00 | X-H torsion
[ 1470  669  668  665 ] final   39.95 input   60.00 | X-H torsion

> <Gold.Protein.ActiveResidues>
 PRO28   PHE29   GLN31   PRO32   VAL33   TYR38   TYR41   PRO48   MET49   ASP50  
 ILE76   ASN79   SER80   TYR83   THR84   ILE91  

> <Gold.Protein.RotatedAtoms>
  -16.3796    9.4539   24.7099 H   0  0  0  0  0  0  0  0  0  0  0  0  # atno 1251 bound_to 358 
  -21.6596   11.0639   22.8741 H   0  0  0  0  0  0  0  0  0  0  0  0  # atno 1470 bound_to 669 
  -19.8858   10.3365   32.4310 H   0  0  0  0  0  0  0  0  0  0  0  0  # atno 1497 bound_to 695 
  -23.3829   11.3011   27.0829 H   0  0  0  0  0  0  0  0  0  0  0  0  # atno 1501 bound_to 701 
  -22.3943   11.2783   25.7905 LP  0  0  0  0  0  0  0  0  0  0  0  0  # atno 2046 bound_to 701 
  -22.4727    9.9855   26.7850 LP  0  0  0  0  0  0  0  0  0  0  0  0  # atno 2047 bound_to 701 
  -18.2735   10.3821   32.2152 LP  0  0  0  0  0  0  0  0  0  0  0  0  # atno 2052 bound_to 695 
  -18.9928    9.0096   32.7307 LP  0  0  0  0  0  0  0  0  0  0  0  0  # atno 2053 bound_to 695 
  -15.0410    8.5735   24.4253 LP  0  0  0  0  0  0  0  0  0  0  0  0  # atno 2056 bound_to 358 
  -14.9600   10.2044   24.4461 LP  0  0  0  0  0  0  0  0  0  0  0  0  # atno 2057 bound_to 358 

> <Gold.Protein.RotatedWaterAtoms>
  -17.7040   10.2320   24.0390 O.3 0  0  0  0  0  0  0  0  0  0  0  0  # atno 1    bound_to 2    3    AM1 ON 
  -17.6434   10.5396   23.0968 H   0  0  0  0  0  0  0  0  0  0  0  0  # atno 2    bound_to 1    AM1 ON 
  -18.3846   10.7719   24.5204 H   0  0  0  0  0  0  0  0  0  0  0  0  # atno 3    bound_to 1    AM1 ON 
  -16.8152   10.3428   24.4836 LP  0  0  0  0  0  0  0  0  0  0  0  0  # atno 4    bound_to 1    AM1 ON 
  -17.9686    9.2678   24.0585 LP  0  0  0  0  0  0  0  0  0  0  0  0  # atno 5    bound_to 1    AM1 ON 
  -13.7450   10.2720   23.0540 O.3 0  0  0  0  0  0  0  0  0  0  0  0  # atno 1    bound_to 2    3    AM2 ON 
  -14.4186   10.8509   22.6099 H   0  0  0  0  0  0  0  0  0  0  0  0  # atno 2    bound_to 1    AM2 ON 
  -14.2007    9.6660   23.6954 H   0  0  0  0  0  0  0  0  0  0  0  0  # atno 3    bound_to 1    AM2 ON 
  -13.0867   10.8427   23.5448 LP  0  0  0  0  0  0  0  0  0  0  0  0  # atno 4    bound_to 1    AM2 ON 
  -13.2661    9.7285   22.3646 LP  0  0  0  0  0  0  0  0  0  0  0  0  # atno 5    bound_to 1    AM2 ON 
  -21.1690   11.6250   24.3940 O.3 0  0  0  0  0  0  0  0  0  0  0  0  # atno 1    bound_to 2    3    AM3 ON 
  -20.6639   12.4716   24.5132 H   0  0  0  0  0  0  0  0  0  0  0  0  # atno 2    bound_to 1    AM3 ON 
  -21.5026   11.3117   25.2754 H   0  0  0  0  0  0  0  0  0  0  0  0  # atno 3    bound_to 1    AM3 ON 
  -20.5673   10.9306   23.9993 LP  0  0  0  0  0  0  0  0  0  0  0  0  # atno 4    bound_to 1    AM3 ON 
  -21.9434   11.7823   23.7812 LP  0  0  0  0  0  0  0  0  0  0  0  0  # atno 5    bound_to 1    AM3 ON 
  -14.6550   15.1580   23.4130 O.3 0  0  0  0  0  0  0  0  0  0  0  0  # atno 1    bound_to 2    3    AM4 ON 
  -13.7801   15.5746   23.6298 H   0  0  0  0  0  0  0  0  0  0  0  0  # atno 2    bound_to 1    AM4 ON 
  -15.3846   15.8068   23.5949 H   0  0  0  0  0  0  0  0  0  0  0  0  # atno 3    bound_to 1    AM4 ON 
  -14.7852   14.3430   23.9777 LP  0  0  0  0  0  0  0  0  0  0  0  0  # atno 4    bound_to 1    AM4 ON 
  -14.6712   14.9002   22.4469 LP  0  0  0  0  0  0  0  0  0  0  0  0  # atno 5    bound_to 1    AM4 ON 
  -23.6820   12.7820   28.0340 O.3 0  0  0  0  0  0  0  0  0  0  0  0  # atno 1    bound_to 2    3    AM5 ON 
  -24.5106   13.3293   28.0347 H   0  0  0  0  0  0  0  0  0  0  0  0  # atno 2    bound_to 1    AM5 ON 
  -22.9584   13.2764   28.5012 H   0  0  0  0  0  0  0  0  0  0  0  0  # atno 3    bound_to 1    AM5 ON 
  -23.4049   12.5979   27.0910 LP  0  0  0  0  0  0  0  0  0  0  0  0  # atno 4    bound_to 1    AM5 ON 
  -23.8533   11.9172   28.5059 LP  0  0  0  0  0  0  0  0  0  0  0  0  # atno 5    bound_to 1    AM5 ON 
  -16.9520   11.2350   21.5950 O.3 0  0  0  0  0  0  0  0  0  0  0  0  # atno 1    bound_to 2    3    AM6 ON 
  -16.3439   12.0195   21.5658 H   0  0  0  0  0  0  0  0  0  0  0  0  # atno 2    bound_to 1    AM6 ON 
  -17.0174   10.8330   20.6892 H   0  0  0  0  0  0  0  0  0  0  0  0  # atno 3    bound_to 1    AM6 ON 
  -17.8595   11.5277   21.8961 LP  0  0  0  0  0  0  0  0  0  0  0  0  # atno 4    bound_to 1    AM6 ON 
  -16.5909   10.5570   22.2353 LP  0  0  0  0  0  0  0  0  0  0  0  0  # atno 5    bound_to 1    AM6 ON 
  -14.9200   12.9840   21.7870 O.3 0  0  0  0  0  0  0  0  0  0  0  0  # atno 1    bound_to 2    3    AM7 ON 
  -14.8433   13.7957   22.3538 H   0  0  0  0  0  0  0  0  0  0  0  0  # atno 2    bound_to 1    AM7 ON 
  -14.0125   12.6706   21.5331 H   0  0  0  0  0  0  0  0  0  0  0  0  # atno 3    bound_to 1    AM7 ON 
  -15.4405   13.2019   20.9614 LP  0  0  0  0  0  0  0  0  0  0  0  0  # atno 4    bound_to 1    AM7 ON 
  -15.3906   12.2642   22.2974 LP  0  0  0  0  0  0  0  0  0  0  0  0  # atno 5    bound_to 1    AM7 ON 

> <Gold.Score>
     Score         DG    S(hbond)    S(metal)    S(lipo)     H(rot)  DE(clash)    DE(int)    S(bar)      intcor
     45.77     -46.29      14.02        0.00      68.33       0.00       0.01       0.51      14.00       0.72

> <Gold.Chemscore.Fitness>
45.7722

> <Gold.Chemscore.DG>
-46.2950

> <Gold.Chemscore.ZeroCoef>
-5.4800

> <Gold.Chemscore.Hbond>
14.0181

> <Gold.Chemscore.Metal>
0.0000

> <Gold.Chemscore.Lipo>
68.3284

> <Gold.Chemscore.Internal_Hbond>
0.0000

> <Gold.Chemscore.DEClash>
0.0137

> <Gold.Chemscore.DEInternal>
0.5091

> <Gold.Chemscore.Rot>
0.0000

> <Gold.Chemscore.Internal.Correction>
0.7220

> <Gold.Chemscore.SBar>
14.0000

> <Gold.Chemscore.Hbonds>
donor molecule, donor type, donor heavy atom, donor atom, acceptor molecule, acceptor atom, score
     AM1  H     1     2      AM6     1  0.99
     AM1  H     1     3       L1     8  0.80
     AM2  H     1     3       P1   358  0.93
     AM3  H     1     3       P1   701  0.76
     AM4  H     1     2       P1   267  1.00
     AM4  H     1     3       P1   238  1.00
     AM5  H     1     3       L1     5  0.97
     AM6  H     1     2      AM7     1  0.99
     AM6  H     1     3       P1   634  0.99
     AM7  H     1     2      AM4     1  0.99
     AM7  H     1     3       P1   419  1.00
      P1  H   701  1501      AM5     1  0.98
      P1  H   358  1251      AM1     1  0.89
      P1  H   416  1258      AM2     1  0.76
      P1  H   669  1470      AM3     1  0.98

> <Gold.Chemscore.Hbond.Weighted>
-46.8206

> <Gold.Chemscore.Metal.Weighted>
-0.0000

> <Gold.Chemscore.Lipo.Weighted>
-7.9944

> <Gold.Chemscore.Internal_Hbond.Weighted>
0.0000

> <Gold.Chemscore.DEClash.Weighted>
0.0137

> <Gold.Chemscore.DEInternal.Weighted>
0.5091

> <Gold.Chemscore.Rot.Weighted>
0.0000

> <Gold.Chemscore.Internal.Correction.Weighted>
0.7220

