#       Name:                F368-D646DEE99CBB389F-D646DEE99CBB389F-NMX
#       Creating user name   iorga
#       Creation time:       Wed Nov 27 16:12:00 2019


#       File generated by GOLD software.
#

@<TRIPOS>MOLECULE
F368-D646DEE99CBB389F-D646DEE99CBB389F-NMX|ligands_smiles_3D-hash|mol2|380|dock43
    32    33     1
SMALL
NO_CHARGES


@<TRIPOS>ATOM
      1 C1         -13.7657  17.7627  28.2111 C.3            1 <1>                0.0000
      2 C2         -15.1370  18.3621  28.5476 C.3            1 <1>                0.0000
      3 N3         -16.2088  17.7122  27.8175 N.pl3          1 <1>                0.0000
      4 C4         -16.1209  16.6545  26.9340 C.2            1 <1>                0.0000
      5 C5         -17.3978  16.4227  26.5063 C.2            1 <1>                0.0000
      6 N6         -17.8794  15.4556  25.5877 N.am           1 <1>                0.0000
      7 C7         -18.4575  14.2745  25.8676 C.2            1 <1>                0.0000
      8 O8         -18.8325  13.4669  25.0165 O.2            1 <1>                0.0000
      9 C9         -18.6307  13.9639  27.3608 C.3            1 <1>                0.0000
     10 C10        -17.3216  13.6959  28.1255 C.3            1 <1>                0.0000
     11 C11        -18.0093  12.5066  28.8026 C.3            1 <1>                0.0000
     12 C12        -19.0326  12.5097  27.6630 C.3            1 <1>                0.0000
     13 C13        -18.2083  17.3782  27.1725 C.2            1 <1>                0.0000
     14 N14        -17.4825  18.1563  27.9607 N.2            1 <1>                0.0000
     15 H15        -12.9747  18.2760  28.7580 H              1 <1>                0.0000
     16 H16        -13.7188  16.7058  28.4758 H              1 <1>                0.0000
     17 H17        -13.5477  17.8526  27.1465 H              1 <1>                0.0000
     18 H18        -15.1484  19.4266  28.3103 H              1 <1>                0.0000
     19 H19        -15.3390  18.2734  29.6158 H              1 <1>                0.0000
     20 H20        -15.1791  16.1808  26.6986 H              1 <1>                0.0000
     21 H21        -17.7600  15.6799  24.6104 H              1 <1>                0.0000
     22 H22        -19.2673  14.6801  27.8842 H              1 <1>                0.0000
     23 H23        -16.4830  13.3936  27.4961 H              1 <1>                0.0000
     24 H24        -17.0333  14.4903  28.8141 H              1 <1>                0.0000
     25 H25        -18.4503  12.7670  29.7660 H              1 <1>                0.0000
     26 H26        -17.4011  11.6039  28.8653 H              1 <1>                0.0000
     27 H27        -20.0645  12.3879  27.9936 H              1 <1>                0.0000
     28 H28        -18.7828  11.8012  26.8713 H              1 <1>                0.0000
     29 H29        -19.2753  17.5329  27.1094 H              1 <1>                0.0000
     30 ****       -18.7138  13.6729  24.0452 LP             1 <1>                0.0000
     31 ****       -19.2556  12.6054  25.2969 LP             1 <1>                0.0000
     32 ****       -17.8036  18.9082  28.5365 LP             1 <1>                0.0000
@<TRIPOS>BOND
    1    1    2 1     
    2    1   15 1     
    3    1   16 1     
    4    1   17 1     
    5    2    3 1     
    6    2   18 1     
    7    2   19 1     
    8    3   14 1     
    9    3    4 1     
   10    4    5 2     
   11    4   20 1     
   12    5    6 1     
   13    5   13 1     
   14    6    7 am    
   15    6   21 1     
   16    7    8 2     
   17    7    9 1     
   18   12    9 1     
   19    9   10 1     
   20    9   22 1     
   21   10   11 1     
   22   10   23 1     
   23   10   24 1     
   24   11   12 1     
   25   11   25 1     
   26   11   26 1     
   27   12   27 1     
   28   12   28 1     
   29   13   14 2     
   30   13   29 1     
   31    8   30 1     
   32    8   31 1     
   33   14   32 1     
@<TRIPOS>SUBSTRUCTURE
      1 ****           1
@<TRIPOS>SET
LONE_PAIRS      STATIC     ATOMS    <user>   **** ""
3 30 31 32
DONOR_HYDROGENS      STATIC     ATOMS    <user>   **** ""
1 21
ATOM$BLUE        STATIC     ATOMS    COLORGROUP SYSTEM
3 30 31 32
ATOM$RED        STATIC     ATOMS    COLORGROUP SYSTEM
1 21
@<TRIPOS>COMMENT
> <Gold.Version>
5.7.1

> <Gold.Id.Protein>
5ENC|5ENC_protein|mol2

> <Gold.Protein.RotatedTorsions>
[ 1501  701  700  697 ] final  -77.62 input   60.00 | X-H torsion
[ 1497  695  694  692 ] final    9.00 input   60.00 | X-H torsion
[ 1251  358  357  355 ] final   -8.54 input   60.00 | X-H torsion
[ 1470  669  668  665 ] final   39.65 input   60.00 | X-H torsion

> <Gold.Protein.ActiveResidues>
 PRO28   PHE29   GLN31   PRO32   VAL33   TYR38   TYR41   PRO48   MET49   ASP50  
 ILE76   ASN79   SER80   TYR83   THR84   ILE91  

> <Gold.Protein.RotatedAtoms>
  -16.3802    9.4394   24.7097 H   0  0  0  0  0  0  0  0  0  0  0  0  # atno 1251 bound_to 358 
  -21.6623   11.0597   22.8744 H   0  0  0  0  0  0  0  0  0  0  0  0  # atno 1470 bound_to 669 
  -18.5210    9.1575   32.6228 H   0  0  0  0  0  0  0  0  0  0  0  0  # atno 1497 bound_to 695 
  -23.3415   10.9411   27.2759 H   0  0  0  0  0  0  0  0  0  0  0  0  # atno 1501 bound_to 701 
  -22.6541   11.5637   25.9388 LP  0  0  0  0  0  0  0  0  0  0  0  0  # atno 2046 bound_to 701 
  -22.2545   10.0626   26.4424 LP  0  0  0  0  0  0  0  0  0  0  0  0  # atno 2047 bound_to 701 
  -19.9851    9.8670   32.5912 LP  0  0  0  0  0  0  0  0  0  0  0  0  # atno 2052 bound_to 695 
  -18.6556   10.7122   32.1615 LP  0  0  0  0  0  0  0  0  0  0  0  0  # atno 2053 bound_to 695 
  -15.0282    8.5804   24.4230 LP  0  0  0  0  0  0  0  0  0  0  0  0  # atno 2056 bound_to 358 
  -14.9721   10.2122   24.4486 LP  0  0  0  0  0  0  0  0  0  0  0  0  # atno 2057 bound_to 358 

> <Gold.Protein.RotatedWaterAtoms>
  -17.7040   10.2320   24.0390 O.3 0  0  0  0  0  0  0  0  0  0  0  0  # atno 1    bound_to 2    3    AM1 ON 
  -17.5948   10.3386   23.0578 H   0  0  0  0  0  0  0  0  0  0  0  0  # atno 2    bound_to 1    AM1 ON 
  -18.6691   10.2683   24.2705 H   0  0  0  0  0  0  0  0  0  0  0  0  # atno 3    bound_to 1    AM1 ON 
  -17.2202   10.9695   24.5103 LP  0  0  0  0  0  0  0  0  0  0  0  0  # atno 4    bound_to 1    AM1 ON 
  -17.3260    9.3507   24.3227 LP  0  0  0  0  0  0  0  0  0  0  0  0  # atno 5    bound_to 1    AM1 ON 
  -13.7450   10.2720   23.0540 O.3 0  0  0  0  0  0  0  0  0  0  0  0  # atno 1    bound_to 2    3    AM2 ON 
  -14.4570   10.4516   23.7225 H   0  0  0  0  0  0  0  0  0  0  0  0  # atno 2    bound_to 1    AM2 ON 
  -13.5752   11.0935   22.5224 H   0  0  0  0  0  0  0  0  0  0  0  0  # atno 3    bound_to 1    AM2 ON 
  -14.0381    9.5352   22.4447 LP  0  0  0  0  0  0  0  0  0  0  0  0  # atno 4    bound_to 1    AM2 ON 
  -12.9059   10.0007   23.5254 LP  0  0  0  0  0  0  0  0  0  0  0  0  # atno 5    bound_to 1    AM2 ON 
  -21.1690   11.6250   24.3940 O.3 0  0  0  0  0  0  0  0  0  0  0  0  # atno 1    bound_to 2    3    AM3 ON 
  -20.4002   12.2350   24.5450 H   0  0  0  0  0  0  0  0  0  0  0  0  # atno 2    bound_to 1    AM3 ON 
  -21.6141   11.4327   25.2607 H   0  0  0  0  0  0  0  0  0  0  0  0  # atno 3    bound_to 1    AM3 ON 
  -20.8422   10.7705   23.9902 LP  0  0  0  0  0  0  0  0  0  0  0  0  # atno 4    bound_to 1    AM3 ON 
  -21.8218   12.0588   23.7730 LP  0  0  0  0  0  0  0  0  0  0  0  0  # atno 5    bound_to 1    AM3 ON 
  -14.6550   15.1580   23.4130 O.3 0  0  0  0  0  0  0  0  0  0  0  0  # atno 1    bound_to 2    3    AM4 ON 
  -15.3862   15.7962   23.6229 H   0  0  0  0  0  0  0  0  0  0  0  0  # atno 2    bound_to 1    AM4 ON 
  -13.7792   15.5785   23.6192 H   0  0  0  0  0  0  0  0  0  0  0  0  # atno 3    bound_to 1    AM4 ON 
  -14.6897   14.9188   22.4427 LP  0  0  0  0  0  0  0  0  0  0  0  0  # atno 4    bound_to 1    AM4 ON 
  -14.7658   14.3311   23.9643 LP  0  0  0  0  0  0  0  0  0  0  0  0  # atno 5    bound_to 1    AM4 ON 
  -23.6820   12.7820   28.0340 O.3 0  0  0  0  0  0  0  0  0  0  0  0  # atno 1    bound_to 2    3    AM5 OFF
  -24.5843   12.4839   27.7457 H   0  0  0  0  0  0  0  0  0  0  0  0  # atno 2    bound_to 1    AM5 OFF
  -23.5566   13.7375   27.7938 H   0  0  0  0  0  0  0  0  0  0  0  0  # atno 3    bound_to 1    AM5 OFF
  -22.9861   12.2290   27.5759 LP  0  0  0  0  0  0  0  0  0  0  0  0  # atno 4    bound_to 1    AM5 OFF
  -23.5955   12.6731   29.0243 LP  0  0  0  0  0  0  0  0  0  0  0  0  # atno 5    bound_to 1    AM5 OFF
  -16.9520   11.2350   21.5950 O.3 0  0  0  0  0  0  0  0  0  0  0  0  # atno 1    bound_to 2    3    AM6 ON 
  -16.9879   10.8432   20.6833 H   0  0  0  0  0  0  0  0  0  0  0  0  # atno 2    bound_to 1    AM6 ON 
  -16.3224   12.0030   21.6006 H   0  0  0  0  0  0  0  0  0  0  0  0  # atno 3    bound_to 1    AM6 ON 
  -16.6379   10.5417   22.2437 LP  0  0  0  0  0  0  0  0  0  0  0  0  # atno 4    bound_to 1    AM6 ON 
  -17.8639   11.5495   21.8588 LP  0  0  0  0  0  0  0  0  0  0  0  0  # atno 5    bound_to 1    AM6 ON 
  -14.9200   12.9840   21.7870 O.3 0  0  0  0  0  0  0  0  0  0  0  0  # atno 1    bound_to 2    3    AM7 ON 
  -14.0188   12.7562   21.4378 H   0  0  0  0  0  0  0  0  0  0  0  0  # atno 2    bound_to 1    AM7 ON 
  -14.8518   13.7680   22.3928 H   0  0  0  0  0  0  0  0  0  0  0  0  # atno 3    bound_to 1    AM7 ON 
  -15.2890   12.2036   22.2919 LP  0  0  0  0  0  0  0  0  0  0  0  0  # atno 4    bound_to 1    AM7 ON 
  -15.5273   13.2044   21.0237 LP  0  0  0  0  0  0  0  0  0  0  0  0  # atno 5    bound_to 1    AM7 ON 

> <Gold.Score>
     Score         DG    S(hbond)    S(metal)    S(lipo)     H(rot)  DE(clash)    DE(int)    S(bar)      intcor
     43.35     -43.92      12.72        0.00      93.08       1.15       0.06       0.51      12.00       5.37

> <Gold.Chemscore.Fitness>
43.3471

> <Gold.Chemscore.DG>
-43.9203

> <Gold.Chemscore.ZeroCoef>
-5.4800

> <Gold.Chemscore.Hbond>
12.7238

> <Gold.Chemscore.Metal>
0.0000

> <Gold.Chemscore.Lipo>
93.0836

> <Gold.Chemscore.Internal_Hbond>
0.0000

> <Gold.Chemscore.DEClash>
0.0582

> <Gold.Chemscore.DEInternal>
0.5150

> <Gold.Chemscore.Rot>
1.1515

> <Gold.Chemscore.Internal.Correction>
5.3703

> <Gold.Chemscore.SBar>
12.0000

> <Gold.Chemscore.Hbonds>
donor molecule, donor type, donor heavy atom, donor atom, acceptor molecule, acceptor atom, score
      L1  H     6    21       P1   238  0.82
     AM1  H     1     2      AM6     1  0.95
     AM2  H     1     2       P1   358  0.59
     AM2  H     1     3       P1   419  0.75
     AM3  H     1     2       L1     8  0.98
     AM3  H     1     3       P1   701  0.77
     AM4  H     1     2       P1   238  1.00
     AM4  H     1     3       P1   267  1.00
     AM6  H     1     2       P1   634  0.99
     AM6  H     1     3      AM7     1  0.99
     AM7  H     1     2       P1   419  0.99
     AM7  H     1     3      AM4     1  0.99
      P1  H   358  1251      AM1     1  0.72
      P1  H   669  1470      AM3     1  0.98
      P1  H   663  1465      AM2     1  0.20

> <Gold.Chemscore.Hbond.Weighted>
-42.4974

> <Gold.Chemscore.Metal.Weighted>
-0.0000

> <Gold.Chemscore.Lipo.Weighted>
-10.8908

> <Gold.Chemscore.Internal_Hbond.Weighted>
0.0000

> <Gold.Chemscore.DEClash.Weighted>
0.0582

> <Gold.Chemscore.DEInternal.Weighted>
0.5150

> <Gold.Chemscore.Rot.Weighted>
2.9479

> <Gold.Chemscore.Internal.Correction.Weighted>
5.3703

