#       Name:                F369-999C257CF6E887B2-999C257CF6E887B2-NMX
#       Creating user name   iorga
#       Creation time:       Wed Nov 27 16:15:19 2019


#       File generated by GOLD software.
#

@<TRIPOS>MOLECULE
F369-999C257CF6E887B2-999C257CF6E887B2-NMX|ligands_smiles_3D-hash|mol2|381|dock15
    35    36     1
SMALL
NO_CHARGES


@<TRIPOS>ATOM
      1 C1         -12.5539  18.3471  28.8986 C.3            1 <1>                0.0000
      2 C2         -13.3462  18.6800  27.6289 C.3            1 <1>                0.0000
      3 N3         -14.5307  17.8533  27.5033 N.pl3          1 <1>                0.0000
      4 C4         -14.8970  17.0411  26.4486 C.2            1 <1>                0.0000
      5 C5         -16.0812  16.4730  26.8104 C.2            1 <1>                0.0000
      6 N6         -16.8166  15.5603  26.0136 N.am           1 <1>                0.0000
      7 C7         -17.5187  14.4922  26.4306 C.2            1 <1>                0.0000
      8 O8         -17.6225  14.1483  27.6084 O.2            1 <1>                0.0000
      9 C9         -18.2170  13.6774  25.3282 C.3            1 <1>                0.0000
     10 C10        -19.4692  14.4696  24.3778 C.3            1 <1>                0.0000
     11 C11        -20.4749  13.3107  24.3760 C.3            1 <1>                0.0000
     12 C12        -20.4183  12.7207  25.7824 C.3            1 <1>                0.0000
     13 C13        -18.9407  12.3856  25.9775 C.3            1 <1>                0.0000
     14 C14        -16.3793  16.9874  28.1042 C.2            1 <1>                0.0000
     15 N15        -15.4346  17.8208  28.5136 N.2            1 <1>                0.0000
     16 H16        -11.6613  18.9682  28.9731 H              1 <1>                0.0000
     17 H17        -13.1526  18.5169  29.7940 H              1 <1>                0.0000
     18 H18        -12.2354  17.3043  28.9011 H              1 <1>                0.0000
     19 H19        -12.7224  18.5322  26.7468 H              1 <1>                0.0000
     20 H20        -13.6469  19.7287  27.6321 H              1 <1>                0.0000
     21 H21        -14.2960  16.9403  25.5568 H              1 <1>                0.0000
     22 H22        -16.8071  15.7356  25.0193 H              1 <1>                0.0000
     23 H23        -17.4770  13.3873  24.5802 H              1 <1>                0.0000
     24 H24        -19.9287  15.3559  24.8186 H              1 <1>                0.0000
     25 H25        -19.1935  14.7392  23.3578 H              1 <1>                0.0000
     26 H26        -20.1592  12.5563  23.6542 H              1 <1>                0.0000
     27 H27        -21.4801  13.6300  24.0990 H              1 <1>                0.0000
     28 H28        -21.0655  11.8511  25.8993 H              1 <1>                0.0000
     29 H29        -20.7301  13.4692  26.5121 H              1 <1>                0.0000
     30 H30        -18.6956  11.4791  25.4226 H              1 <1>                0.0000
     31 H31        -18.7037  12.1918  27.0250 H              1 <1>                0.0000
     32 H32        -17.2224  16.7961  28.7512 H              1 <1>                0.0000
     33 ****       -17.1672  14.6761  28.3254 LP             1 <1>                0.0000
     34 ****       -18.1620  13.3411  27.8479 LP             1 <1>                0.0000
     35 ****       -15.3962  18.3184  29.3802 LP             1 <1>                0.0000
@<TRIPOS>BOND
    1    1    2 1     
    2    1   16 1     
    3    1   17 1     
    4    1   18 1     
    5    2    3 1     
    6    2   19 1     
    7    2   20 1     
    8    3   15 1     
    9    3    4 1     
   10    4    5 2     
   11    4   21 1     
   12    5    6 1     
   13    5   14 1     
   14    6    7 am    
   15    6   22 1     
   16    7    8 2     
   17    7    9 1     
   18    9   13 1     
   19    9   10 1     
   20    9   23 1     
   21   10   11 1     
   22   10   24 1     
   23   10   25 1     
   24   11   12 1     
   25   11   26 1     
   26   11   27 1     
   27   12   13 1     
   28   12   28 1     
   29   12   29 1     
   30   13   30 1     
   31   13   31 1     
   32   14   15 2     
   33   14   32 1     
   34    8   33 1     
   35    8   34 1     
   36   15   35 1     
@<TRIPOS>SUBSTRUCTURE
      1 ****           1
@<TRIPOS>SET
LONE_PAIRS      STATIC     ATOMS    <user>   **** ""
3 33 34 35
DONOR_HYDROGENS      STATIC     ATOMS    <user>   **** ""
1 22
ATOM$BLUE        STATIC     ATOMS    COLORGROUP SYSTEM
3 33 34 35
ATOM$RED        STATIC     ATOMS    COLORGROUP SYSTEM
1 22
@<TRIPOS>COMMENT
> <Gold.Version>
5.7.1

> <Gold.Id.Protein>
5ENC|5ENC_protein|mol2

> <Gold.Protein.RotatedTorsions>
[ 1501  701  700  697 ] final -115.06 input   60.00 | X-H torsion
[ 1497  695  694  692 ] final   85.16 input   60.00 | X-H torsion
[ 1251  358  357  355 ] final   -2.27 input   60.00 | X-H torsion
[ 1470  669  668  665 ] final   44.65 input   60.00 | X-H torsion

> <Gold.Protein.ActiveResidues>
 PRO28   PHE29   GLN31   PRO32   VAL33   TYR38   TYR41   PRO48   MET49   ASP50  
 ILE76   ASN79   SER80   TYR83   THR84   ILE91  

> <Gold.Protein.RotatedAtoms>
  -16.3712    9.5415   24.7102 H   0  0  0  0  0  0  0  0  0  0  0  0  # atno 1251 bound_to 358 
  -21.6203   11.1293   22.8658 H   0  0  0  0  0  0  0  0  0  0  0  0  # atno 1470 bound_to 669 
  -18.1855   10.2004   32.2579 H   0  0  0  0  0  0  0  0  0  0  0  0  # atno 1497 bound_to 695 
  -23.3594   11.4466   26.9515 H   0  0  0  0  0  0  0  0  0  0  0  0  # atno 1501 bound_to 701 
  -22.2917   11.1092   25.7708 LP  0  0  0  0  0  0  0  0  0  0  0  0  # atno 2046 bound_to 701 
  -22.5989   10.0081   26.9370 LP  0  0  0  0  0  0  0  0  0  0  0  0  # atno 2047 bound_to 701 
  -19.1980    9.0261   32.7516 LP  0  0  0  0  0  0  0  0  0  0  0  0  # atno 2052 bound_to 695 
  -19.7806   10.5028   32.3687 LP  0  0  0  0  0  0  0  0  0  0  0  0  # atno 2053 bound_to 695 
  -15.1202    8.5366   24.4400 LP  0  0  0  0  0  0  0  0  0  0  0  0  # atno 2056 bound_to 358 
  -14.8893   10.1531   24.4310 LP  0  0  0  0  0  0  0  0  0  0  0  0  # atno 2057 bound_to 358 

> <Gold.Protein.RotatedWaterAtoms>
  -17.7040   10.2320   24.0390 O.3 0  0  0  0  0  0  0  0  0  0  0  0  # atno 1    bound_to 2    3    AM1 ON 
  -17.6876   10.6002   23.1169 H   0  0  0  0  0  0  0  0  0  0  0  0  # atno 2    bound_to 1    AM1 ON 
  -18.5955   10.3955   24.4449 H   0  0  0  0  0  0  0  0  0  0  0  0  # atno 3    bound_to 1    AM1 ON 
  -16.9998   10.6803   24.5896 LP  0  0  0  0  0  0  0  0  0  0  0  0  # atno 4    bound_to 1    AM1 ON 
  -17.5271    9.2483   24.0083 LP  0  0  0  0  0  0  0  0  0  0  0  0  # atno 5    bound_to 1    AM1 ON 
  -13.7450   10.2720   23.0540 O.3 0  0  0  0  0  0  0  0  0  0  0  0  # atno 1    bound_to 2    3    AM2 ON 
  -14.0917   11.1975   23.1500 H   0  0  0  0  0  0  0  0  0  0  0  0  # atno 2    bound_to 1    AM2 ON 
  -14.2162    9.6742   23.6918 H   0  0  0  0  0  0  0  0  0  0  0  0  # atno 3    bound_to 1    AM2 ON 
  -12.7644   10.2615   23.2496 LP  0  0  0  0  0  0  0  0  0  0  0  0  # atno 4    bound_to 1    AM2 ON 
  -13.9020    9.9525   22.1195 LP  0  0  0  0  0  0  0  0  0  0  0  0  # atno 5    bound_to 1    AM2 ON 
  -21.1690   11.6250   24.3940 O.3 0  0  0  0  0  0  0  0  0  0  0  0  # atno 1    bound_to 2    3    AM3 OFF
  -21.7620   11.8878   23.6421 H   0  0  0  0  0  0  0  0  0  0  0  0  # atno 2    bound_to 1    AM3 OFF
  -21.1493   12.3524   25.0699 H   0  0  0  0  0  0  0  0  0  0  0  0  # atno 3    bound_to 1    AM3 OFF
  -20.2441   11.4654   24.0490 LP  0  0  0  0  0  0  0  0  0  0  0  0  # atno 4    bound_to 1    AM3 OFF
  -21.5166   10.7875   24.8156 LP  0  0  0  0  0  0  0  0  0  0  0  0  # atno 5    bound_to 1    AM3 OFF
  -14.6550   15.1580   23.4130 O.3 0  0  0  0  0  0  0  0  0  0  0  0  # atno 1    bound_to 2    3    AM4 ON 
  -15.4086   15.8002   23.4885 H   0  0  0  0  0  0  0  0  0  0  0  0  # atno 2    bound_to 1    AM4 ON 
  -13.8090   15.6084   23.6732 H   0  0  0  0  0  0  0  0  0  0  0  0  # atno 3    bound_to 1    AM4 ON 
  -14.5846   14.8362   22.4688 LP  0  0  0  0  0  0  0  0  0  0  0  0  # atno 4    bound_to 1    AM4 ON 
  -14.8183   14.3796   24.0191 LP  0  0  0  0  0  0  0  0  0  0  0  0  # atno 5    bound_to 1    AM4 ON 
  -23.6820   12.7820   28.0340 O.3 0  0  0  0  0  0  0  0  0  0  0  0  # atno 1    bound_to 2    3    AM5 ON 
  -23.6473   12.7355   29.0253 H   0  0  0  0  0  0  0  0  0  0  0  0  # atno 2    bound_to 1    AM5 ON 
  -23.9383   13.6999   27.7545 H   0  0  0  0  0  0  0  0  0  0  0  0  # atno 3    bound_to 1    AM5 ON 
  -24.3580   12.1287   27.6931 LP  0  0  0  0  0  0  0  0  0  0  0  0  # atno 4    bound_to 1    AM5 ON 
  -22.7829   12.5579   27.6581 LP  0  0  0  0  0  0  0  0  0  0  0  0  # atno 5    bound_to 1    AM5 ON 
  -16.9520   11.2350   21.5950 O.3 0  0  0  0  0  0  0  0  0  0  0  0  # atno 1    bound_to 2    3    AM6 ON 
  -16.3096   11.9899   21.5360 H   0  0  0  0  0  0  0  0  0  0  0  0  # atno 2    bound_to 1    AM6 ON 
  -17.0552   10.8174   20.6999 H   0  0  0  0  0  0  0  0  0  0  0  0  # atno 3    bound_to 1    AM6 ON 
  -17.8386   11.5755   21.9082 LP  0  0  0  0  0  0  0  0  0  0  0  0  # atno 4    bound_to 1    AM6 ON 
  -16.6085   10.5548   22.2425 LP  0  0  0  0  0  0  0  0  0  0  0  0  # atno 5    bound_to 1    AM6 ON 
  -14.9200   12.9840   21.7870 O.3 0  0  0  0  0  0  0  0  0  0  0  0  # atno 1    bound_to 2    3    AM7 ON 
  -14.0310   12.7726   21.3983 H   0  0  0  0  0  0  0  0  0  0  0  0  # atno 2    bound_to 1    AM7 ON 
  -14.8099   13.6304   22.5329 H   0  0  0  0  0  0  0  0  0  0  0  0  # atno 3    bound_to 1    AM7 ON 
  -15.3409   12.1452   22.1323 LP  0  0  0  0  0  0  0  0  0  0  0  0  # atno 4    bound_to 1    AM7 ON 
  -15.5052   13.3849   21.0821 LP  0  0  0  0  0  0  0  0  0  0  0  0  # atno 5    bound_to 1    AM7 ON 

> <Gold.Score>
     Score         DG    S(hbond)    S(metal)    S(lipo)     H(rot)  DE(clash)    DE(int)    S(bar)      intcor
     42.70     -43.05      11.64        0.00     116.46       1.14       0.19       0.16      12.00       3.95

> <Gold.Chemscore.Fitness>
42.7028

> <Gold.Chemscore.DG>
-43.0524

> <Gold.Chemscore.ZeroCoef>
-5.4800

> <Gold.Chemscore.Hbond>
11.6388

> <Gold.Chemscore.Metal>
0.0000

> <Gold.Chemscore.Lipo>
116.4597

> <Gold.Chemscore.Internal_Hbond>
0.0000

> <Gold.Chemscore.DEClash>
0.1941

> <Gold.Chemscore.DEInternal>
0.1555

> <Gold.Chemscore.Rot>
1.1433

> <Gold.Chemscore.Internal.Correction>
3.9518

> <Gold.Chemscore.SBar>
12.0000

> <Gold.Chemscore.Hbonds>
donor molecule, donor type, donor heavy atom, donor atom, acceptor molecule, acceptor atom, score
      L1  H     6    22       P1   238  0.96
     AM1  H     1     2      AM6     1  0.98
     AM2  H     1     3       P1   358  0.93
     AM4  H     1     2       P1   238  1.00
     AM4  H     1     3       P1   267  1.00
     AM6  H     1     2      AM7     1  0.99
     AM6  H     1     3       P1   634  1.00
     AM7  H     1     2       P1   419  0.99
     AM7  H     1     3      AM4     1  0.99
      P1  H   701  1501      AM5     1  0.99
      P1  H   358  1251      AM1     1  0.94
      P1  H   416  1258      AM2     1  0.87

> <Gold.Chemscore.Hbond.Weighted>
-38.8736

> <Gold.Chemscore.Metal.Weighted>
-0.0000

> <Gold.Chemscore.Lipo.Weighted>
-13.6258

> <Gold.Chemscore.Internal_Hbond.Weighted>
0.0000

> <Gold.Chemscore.DEClash.Weighted>
0.1941

> <Gold.Chemscore.DEInternal.Weighted>
0.1555

> <Gold.Chemscore.Rot.Weighted>
2.9269

> <Gold.Chemscore.Internal.Correction.Weighted>
3.9518

