#       Name:                F535-2F7EA7C982FECE86-EA9D872162B15507-NMX
#       Creating user name   iorga
#       Creation time:       Wed Nov 27 17:24:06 2019


#       File generated by GOLD software.
#

@<TRIPOS>MOLECULE
F535-2F7EA7C982FECE86-EA9D872162B15507-NMX|ligands_smiles_3D-hash|mol2|550|dock7
    25    26     1
SMALL
NO_CHARGES


@<TRIPOS>ATOM
      1 C1         -17.4577  16.6252  26.9454 C.3            1 <1>                0.0000
      2 C2         -18.3497  14.5847  25.8781 C.3            1 <1>                0.0000
      3 C3         -19.2636  14.3568  27.0395 C.2            1 <1>                0.0000
      4 N4         -20.5781  14.5913  27.0515 N.2            1 <1>                0.0000
      5 N5         -21.0760  14.2558  28.3011 N.2            1 <1>                0.0000
      6 C6         -20.0512  13.8207  29.0375 C.2            1 <1>                0.0000
      7 C7         -19.9289  13.3448  30.3706 C.2            1 <1>                0.0000
      8 C8         -18.6962  12.9586  30.8457 C.2            1 <1>                0.0000
      9 C9         -17.5513  13.0297  30.0162 C.2            1 <1>                0.0000
     10 C10        -17.6574  13.4882  28.7242 C.2            1 <1>                0.0000
     11 N11        -18.8810  13.8730  28.2570 N.pl3          1 <1>                0.0000
     12 H12        -17.4110  17.7102  26.8514 H              1 <1>                0.0000
     13 H13        -17.9271  16.3837  27.8997 H              1 <1>                0.0000
     14 H14        -16.4381  16.2383  26.9508 H              1 <1>                0.0000
     15 H15        -17.3825  14.1147  26.0609 H              1 <1>                0.0000
     16 H16        -18.7710  14.1790  24.9580 H              1 <1>                0.0000
     17 H17        -20.8099  13.2906  31.0019 H              1 <1>                0.0000
     18 H18        -18.6051  12.5966  31.8647 H              1 <1>                0.0000
     19 H19        -16.5834  12.7222  30.3995 H              1 <1>                0.0000
     20 H20        -16.8084  13.5603  28.0534 H              1 <1>                0.0000
     21 N21        -18.2270  16.0541  25.8253 N.4            1 <1>                0.0000
     22 H22        -19.1559  16.4516  25.8343 H              1 <1>                0.0000
     23 H23        -17.7756  16.3102  24.9588 H              1 <1>                0.0000
     24 ****       -21.1139  14.9492  26.2868 LP             1 <1>                0.0000
     25 ****       -22.0287  14.3268  28.5967 LP             1 <1>                0.0000
@<TRIPOS>BOND
    1    1   12 1     
    2    1   13 1     
    3    1   14 1     
    4    1   21 1     
    5    2    3 1     
    6    2   15 1     
    7    2   16 1     
    8    2   21 1     
    9    3   11 1     
   10    3    4 2     
   11    4    5 1     
   12    5    6 2     
   13    6   11 1     
   14    6    7 1     
   15    7    8 2     
   16    7   17 1     
   17    8    9 1     
   18    8   18 1     
   19    9   10 2     
   20    9   19 1     
   21   10   11 1     
   22   10   20 1     
   23   21   22 1     
   24   21   23 1     
   25    4   24 1     
   26    5   25 1     
@<TRIPOS>SUBSTRUCTURE
      1 ****           1
@<TRIPOS>SET
LONE_PAIRS      STATIC     ATOMS    <user>   **** ""
2 24 25
DONOR_HYDROGENS      STATIC     ATOMS    <user>   **** ""
2 22 23
ATOM$BLUE        STATIC     ATOMS    COLORGROUP SYSTEM
2 24 25
ATOM$RED        STATIC     ATOMS    COLORGROUP SYSTEM
2 22 23
@<TRIPOS>COMMENT
> <Gold.Version>
5.7.1

> <Gold.Id.Protein>
5ENC|5ENC_protein|mol2

> <Gold.Protein.RotatedTorsions>
[ 1501  701  700  697 ] final -103.03 input   60.00 | X-H torsion
[ 1497  695  694  692 ] final    3.09 input   60.00 | X-H torsion
[ 1251  358  357  355 ] final   -8.53 input   60.00 | X-H torsion
[ 1470  669  668  665 ] final   37.68 input   60.00 | X-H torsion

> <Gold.Protein.ActiveResidues>
 PRO28   PHE29   GLN31   PRO32   VAL33   TYR38   TYR41   PRO48   MET49   ASP50  
 ILE76   ASN79   SER80   TYR83   THR84   ILE91  

> <Gold.Protein.RotatedAtoms>
  -16.3802    9.4396   24.7097 H   0  0  0  0  0  0  0  0  0  0  0  0  # atno 1251 bound_to 358 
  -21.6795   11.0326   22.8760 H   0  0  0  0  0  0  0  0  0  0  0  0  # atno 1470 bound_to 669 
  -18.6023    9.1116   32.6473 H   0  0  0  0  0  0  0  0  0  0  0  0  # atno 1497 bound_to 695 
  -23.3828   11.3021   27.0821 H   0  0  0  0  0  0  0  0  0  0  0  0  # atno 1501 bound_to 701 
  -22.3935   11.2773   25.7903 LP  0  0  0  0  0  0  0  0  0  0  0  0  # atno 2046 bound_to 701 
  -22.4734    9.9855   26.7861 LP  0  0  0  0  0  0  0  0  0  0  0  0  # atno 2047 bound_to 701 
  -19.9884    9.9599   32.5629 LP  0  0  0  0  0  0  0  0  0  0  0  0  # atno 2052 bound_to 695 
  -18.5705   10.6655   32.1652 LP  0  0  0  0  0  0  0  0  0  0  0  0  # atno 2053 bound_to 695 
  -15.0284    8.5803   24.4230 LP  0  0  0  0  0  0  0  0  0  0  0  0  # atno 2056 bound_to 358 
  -14.9720   10.2121   24.4486 LP  0  0  0  0  0  0  0  0  0  0  0  0  # atno 2057 bound_to 358 

> <Gold.Protein.RotatedWaterAtoms>
  -17.7040   10.2320   24.0390 O.3 0  0  0  0  0  0  0  0  0  0  0  0  # atno 1    bound_to 2    3    AM1 ON 
  -17.6738   10.5758   23.1079 H   0  0  0  0  0  0  0  0  0  0  0  0  # atno 2    bound_to 1    AM1 ON 
  -18.6178   10.3554   24.4080 H   0  0  0  0  0  0  0  0  0  0  0  0  # atno 3    bound_to 1    AM1 ON 
  -17.0469   10.7341   24.6012 LP  0  0  0  0  0  0  0  0  0  0  0  0  # atno 4    bound_to 1    AM1 ON 
  -17.4715    9.2594   24.0429 LP  0  0  0  0  0  0  0  0  0  0  0  0  # atno 5    bound_to 1    AM1 ON 
  -13.7450   10.2720   23.0540 O.3 0  0  0  0  0  0  0  0  0  0  0  0  # atno 1    bound_to 2    3    AM2 ON 
  -14.4304   10.8806   22.6720 H   0  0  0  0  0  0  0  0  0  0  0  0  # atno 2    bound_to 1    AM2 ON 
  -14.1713    9.6680   23.7171 H   0  0  0  0  0  0  0  0  0  0  0  0  # atno 3    bound_to 1    AM2 ON 
  -13.0335   10.8118   23.5039 LP  0  0  0  0  0  0  0  0  0  0  0  0  # atno 4    bound_to 1    AM2 ON 
  -13.3370    9.7276   22.3211 LP  0  0  0  0  0  0  0  0  0  0  0  0  # atno 5    bound_to 1    AM2 ON 
  -21.1690   11.6250   24.3940 O.3 0  0  0  0  0  0  0  0  0  0  0  0  # atno 1    bound_to 2    3    AM3 ON 
  -21.5832   11.4386   25.2770 H   0  0  0  0  0  0  0  0  0  0  0  0  # atno 2    bound_to 1    AM3 ON 
  -20.4447   12.2956   24.5032 H   0  0  0  0  0  0  0  0  0  0  0  0  # atno 3    bound_to 1    AM3 ON 
  -21.8630   11.9826   23.7691 LP  0  0  0  0  0  0  0  0  0  0  0  0  # atno 4    bound_to 1    AM3 ON 
  -20.7872   10.7799   24.0198 LP  0  0  0  0  0  0  0  0  0  0  0  0  # atno 5    bound_to 1    AM3 ON 
  -14.6550   15.1580   23.4130 O.3 0  0  0  0  0  0  0  0  0  0  0  0  # atno 1    bound_to 2    3    AM4 ON 
  -15.3599   15.8358   23.5852 H   0  0  0  0  0  0  0  0  0  0  0  0  # atno 2    bound_to 1    AM4 ON 
  -13.7691   15.5311   23.6625 H   0  0  0  0  0  0  0  0  0  0  0  0  # atno 3    bound_to 1    AM4 ON 
  -14.6540   14.9172   22.4424 LP  0  0  0  0  0  0  0  0  0  0  0  0  # atno 4    bound_to 1    AM4 ON 
  -14.8382   14.3405   23.9590 LP  0  0  0  0  0  0  0  0  0  0  0  0  # atno 5    bound_to 1    AM4 ON 
  -23.6820   12.7820   28.0340 O.3 0  0  0  0  0  0  0  0  0  0  0  0  # atno 1    bound_to 2    3    AM5 ON 
  -22.9467   13.3531   28.3793 H   0  0  0  0  0  0  0  0  0  0  0  0  # atno 2    bound_to 1    AM5 ON 
  -24.5530   13.2321   28.1925 H   0  0  0  0  0  0  0  0  0  0  0  0  # atno 3    bound_to 1    AM5 ON 
  -23.6708   11.9014   28.5078 LP  0  0  0  0  0  0  0  0  0  0  0  0  # atno 4    bound_to 1    AM5 ON 
  -23.5567   12.6343   27.0529 LP  0  0  0  0  0  0  0  0  0  0  0  0  # atno 5    bound_to 1    AM5 ON 
  -16.9520   11.2350   21.5950 O.3 0  0  0  0  0  0  0  0  0  0  0  0  # atno 1    bound_to 2    3    AM6 ON 
  -16.8560   10.7213   20.7507 H   0  0  0  0  0  0  0  0  0  0  0  0  # atno 2    bound_to 1    AM6 ON 
  -16.3160   11.9978   21.5925 H   0  0  0  0  0  0  0  0  0  0  0  0  # atno 3    bound_to 1    AM6 ON 
  -16.7539   10.6383   22.3726 LP  0  0  0  0  0  0  0  0  0  0  0  0  # atno 4    bound_to 1    AM6 ON 
  -17.8872   11.5810   21.6701 LP  0  0  0  0  0  0  0  0  0  0  0  0  # atno 5    bound_to 1    AM6 ON 
  -14.9200   12.9840   21.7870 O.3 0  0  0  0  0  0  0  0  0  0  0  0  # atno 1    bound_to 2    3    AM7 ON 
  -14.8799   13.8250   22.3134 H   0  0  0  0  0  0  0  0  0  0  0  0  # atno 2    bound_to 1    AM7 ON 
  -14.0104   12.7534   21.4617 H   0  0  0  0  0  0  0  0  0  0  0  0  # atno 3    bound_to 1    AM7 ON 
  -15.5318   13.1085   21.0058 LP  0  0  0  0  0  0  0  0  0  0  0  0  # atno 4    bound_to 1    AM7 ON 
  -15.2645   12.2447   22.3656 LP  0  0  0  0  0  0  0  0  0  0  0  0  # atno 5    bound_to 1    AM7 ON 

> <Gold.Score>
     Score         DG    S(hbond)    S(metal)    S(lipo)     H(rot)  DE(clash)    DE(int)    S(bar)      intcor
     43.84     -44.09      14.13        0.00      76.07       1.36       0.07       0.18      14.00       0.00

> <Gold.Chemscore.Fitness>
43.8378

> <Gold.Chemscore.DG>
-44.0923

> <Gold.Chemscore.ZeroCoef>
-5.4800

> <Gold.Chemscore.Hbond>
14.1270

> <Gold.Chemscore.Metal>
0.0000

> <Gold.Chemscore.Lipo>
76.0740

> <Gold.Chemscore.Internal_Hbond>
0.0000

> <Gold.Chemscore.DEClash>
0.0750

> <Gold.Chemscore.DEInternal>
0.1795

> <Gold.Chemscore.Rot>
1.3564

> <Gold.Chemscore.Internal.Correction>
0.0000

> <Gold.Chemscore.SBar>
14.0000

> <Gold.Chemscore.Hbonds>
donor molecule, donor type, donor heavy atom, donor atom, acceptor molecule, acceptor atom, score
      L1  H    21    23       P1   238  0.97
     AM1  H     1     2      AM6     1  0.98
     AM2  H     1     3       P1   358  0.92
     AM3  H     1     2       P1   701  0.77
     AM4  H     1     2       P1   238  1.00
     AM4  H     1     3       P1   267  0.98
     AM5  H     1     2       L1     5  0.89
     AM6  H     1     2       P1   634  0.97
     AM6  H     1     3      AM7     1  0.99
     AM7  H     1     2      AM4     1  0.99
     AM7  H     1     3       P1   419  0.99
      P1  H   701  1501      AM5     1  0.98
      P1  H   358  1251      AM1     1  0.91
      P1  H   416  1258      AM2     1  0.82
      P1  H   669  1470      AM3     1  0.97

> <Gold.Chemscore.Hbond.Weighted>
-47.1841

> <Gold.Chemscore.Metal.Weighted>
-0.0000

> <Gold.Chemscore.Lipo.Weighted>
-8.9007

> <Gold.Chemscore.Internal_Hbond.Weighted>
0.0000

> <Gold.Chemscore.DEClash.Weighted>
0.0750

> <Gold.Chemscore.DEInternal.Weighted>
0.1795

> <Gold.Chemscore.Rot.Weighted>
3.4724

> <Gold.Chemscore.Internal.Correction.Weighted>
0.0000

