[94]F618
  PyMOL2.3          3D                             0

 26 26  0  0  0  0  0  0  0  0999 V2000
  -20.1913   10.8344   25.2723 C   0  0  0  0  0  0  0  0  0  0  0  0
  -19.5068   12.9650   26.2338 N   0  0  0  0  0  0  0  0  0  0  0  0
  -17.7129   10.6570   23.8905 O   0  0  0  0  0  0  0  0  0  0  0  0
  -18.9963   11.7074   25.6610 C   0  0  0  0  0  0  0  0  0  0  0  0
  -18.0234   12.7758   28.1252 N   0  0  0  0  0  0  0  0  0  0  0  0
  -18.0759   11.9100   24.4518 C   0  0  0  0  0  0  0  0  0  0  0  0
  -19.5485   14.1918   25.4520 C   0  0  0  0  0  0  0  0  0  0  0  0
  -19.2078   13.1737   27.5951 C   0  0  0  0  0  0  0  0  0  0  0  0
  -17.8095   12.9983   29.4450 C   0  0  0  0  0  0  0  0  0  0  0  0
  -18.7155   13.6158   30.2859 C   0  0  0  0  0  0  0  0  0  0  0  0
  -19.9213   14.0275   29.7436 C   0  0  0  0  0  0  0  0  0  0  0  0
  -20.1707   13.8014   28.3942 C   0  0  0  0  0  0  0  0  0  0  0  0
  -21.3360   14.1995   27.8641 F   0  0  0  0  0  0  0  0  0  0  0  0
  -20.7116   11.2264   24.3939 H   0  0  0  0  0  0  0  0  0  0  0  0
  -19.8652    9.8167   25.0397 H   0  0  0  0  0  0  0  0  0  0  0  0
  -20.9124   10.7641   26.0924 H   0  0  0  0  0  0  0  0  0  0  0  0
  -18.4331   11.1494   26.4240 H   0  0  0  0  0  0  0  0  0  0  0  0
  -18.6047   12.4692   23.6733 H   0  0  0  0  0  0  0  0  0  0  0  0
  -17.1711   12.4750   24.7000 H   0  0  0  0  0  0  0  0  0  0  0  0
  -16.8138   10.4530   24.1990 H   0  0  0  0  0  0  0  0  0  0  0  0
  -20.2657   14.8957   25.8857 H   0  0  0  0  0  0  0  0  0  0  0  0
  -18.5700   14.6792   25.4073 H   0  0  0  0  0  0  0  0  0  0  0  0
  -19.8816   13.9877   24.4312 H   0  0  0  0  0  0  0  0  0  0  0  0
  -16.8508   12.6536   29.8136 H   0  0  0  0  0  0  0  0  0  0  0  0
  -18.4899   13.7690   31.3332 H   0  0  0  0  0  0  0  0  0  0  0  0
  -20.6626   14.5189   30.3634 H   0  0  0  0  0  0  0  0  0  0  0  0
  1 14  1  0  0  0  0
  1 15  1  0  0  0  0
  1 16  1  0  0  0  0
  2  4  1  0  0  0  0
  3  6  1  0  0  0  0
  3 20  1  0  0  0  0
  1  4  1  0  0  0  0
  4 17  1  0  0  0  0
  5  8  1  0  0  0  0
  4  6  1  0  0  0  0
  6 18  1  0  0  0  0
  6 19  1  0  0  0  0
  2  7  1  0  0  0  0
  7 21  1  0  0  0  0
  7 22  1  0  0  0  0
  7 23  1  0  0  0  0
  2  8  1  0  0  0  0
  5  9  2  0  0  0  0
  9 24  1  0  0  0  0
  9 10  1  0  0  0  0
 10 25  1  0  0  0  0
 10 11  2  0  0  0  0
 11 26  1  0  0  0  0
  8 12  2  0  0  0  0
 11 12  1  0  0  0  0
 12 13  1  0  0  0  0
M  END
$$$$
