[33]F368
  PyMOL2.3          3D                             0

 29 30  0  0  0  0  0  0  0  0999 V2000
  -17.0889   12.1961   30.5941 C   0  0  0  0  0  0  0  0  0  0  0  0
  -18.7840   13.8273   29.8531 N   0  0  0  0  0  0  0  0  0  0  0  0
  -18.1256   14.2035   25.4501 O   0  0  0  0  0  0  0  0  0  0  0  0
  -18.0604   13.2915   30.9866 C   0  0  0  0  0  0  0  0  0  0  0  0
  -20.1158   13.8539   26.5831 N   0  0  0  0  0  0  0  0  0  0  0  0
  -18.7623   13.3541   28.5696 C   0  0  0  0  0  0  0  0  0  0  0  0
  -19.6325   14.8559   30.0355 N   0  0  0  0  0  0  0  0  0  0  0  0
  -19.7319   14.0646   27.8963 C   0  0  0  0  0  0  0  0  0  0  0  0
  -19.1933   13.5935   25.5699 C   0  0  0  0  0  0  0  0  0  0  0  0
  -19.6500   12.4588   24.6070 C   0  0  0  0  0  0  0  0  0  0  0  0
  -20.1872   11.1278   25.2077 C   0  0  0  0  0  0  0  0  0  0  0  0
  -18.8053   10.5072   24.9656 C   0  0  0  0  0  0  0  0  0  0  0  0
  -18.5507   11.6022   23.9207 C   0  0  0  0  0  0  0  0  0  0  0  0
  -20.2057   14.9961   28.8388 C   0  0  0  0  0  0  0  0  0  0  0  0
  -16.4828   12.4902   29.7304 H   0  0  0  0  0  0  0  0  0  0  0  0
  -16.4101   11.9847   31.4256 H   0  0  0  0  0  0  0  0  0  0  0  0
  -17.6219   11.2691   30.3615 H   0  0  0  0  0  0  0  0  0  0  0  0
  -17.5255   14.1136   31.4762 H   0  0  0  0  0  0  0  0  0  0  0  0
  -18.8058   12.9223   31.6987 H   0  0  0  0  0  0  0  0  0  0  0  0
  -18.0979   12.5552   28.2653 H   0  0  0  0  0  0  0  0  0  0  0  0
  -21.1014   13.6586   26.4356 H   0  0  0  0  0  0  0  0  0  0  0  0
  -20.3706   12.8705   23.8859 H   0  0  0  0  0  0  0  0  0  0  0  0
  -20.9732   10.6599   24.6033 H   0  0  0  0  0  0  0  0  0  0  0  0
  -20.5152   11.1408   26.2508 H   0  0  0  0  0  0  0  0  0  0  0  0
  -18.7963    9.4873   24.5724 H   0  0  0  0  0  0  0  0  0  0  0  0
  -18.1425   10.5655   25.8360 H   0  0  0  0  0  0  0  0  0  0  0  0
  -18.8011   11.3199   22.8917 H   0  0  0  0  0  0  0  0  0  0  0  0
  -17.5300   11.9920   23.9352 H   0  0  0  0  0  0  0  0  0  0  0  0
  -20.9527   15.7641   28.7091 H   0  0  0  0  0  0  0  0  0  0  0  0
  1 15  1  0  0  0  0
  1 16  1  0  0  0  0
  1 17  1  0  0  0  0
  2  4  1  0  0  0  0
  3  9  2  0  0  0  0
  1  4  1  0  0  0  0
  4 18  1  0  0  0  0
  4 19  1  0  0  0  0
  5  8  1  0  0  0  0
  5 21  1  0  0  0  0
  2  6  1  0  0  0  0
  6 20  1  0  0  0  0
  2  7  1  0  0  0  0
  7 14  2  0  0  0  0
  6  8  2  0  0  0  0
  5  9  1  0  0  0  0
  9 10  1  0  0  0  0
 10 22  1  0  0  0  0
 10 11  1  0  0  0  0
 11 23  1  0  0  0  0
 11 24  1  0  0  0  0
 11 12  1  0  0  0  0
 12 25  1  0  0  0  0
 12 26  1  0  0  0  0
 10 13  1  0  0  0  0
 12 13  1  0  0  0  0
 13 27  1  0  0  0  0
 13 28  1  0  0  0  0
  8 14  1  0  0  0  0
 14 29  1  0  0  0  0
M  END
$$$$
