[89]F5
  PyMOL2.3          3D                             0

 22 22  0  0  0  0  0  0  0  0999 V2000
  -18.7419   14.1644   29.7767 C   0  0  0  0  0  0  0  0  0  0  0  0
  -20.2792   14.4764   26.4646 O   0  0  0  0  0  0  0  0  0  0  0  0
  -19.5333   14.6471   28.7389 C   0  0  0  0  0  0  0  0  0  0  0  0
  -21.0101   11.8126   26.1233 O   0  0  0  0  0  0  0  0  0  0  0  0
  -19.5431   13.9785   27.5107 C   0  0  0  0  0  0  0  0  0  0  0  0
  -20.1350   12.0427   24.0457 O   0  0  0  0  0  0  0  0  0  0  0  0
  -21.1327   15.5502   26.8572 C   0  0  0  0  0  0  0  0  0  0  0  0
  -18.7217   12.8585   27.2927 C   0  0  0  0  0  0  0  0  0  0  0  0
  -18.6522   12.1822   25.9459 C   0  0  0  0  0  0  0  0  0  0  0  0
  -19.9873   12.0192   25.2608 C   0  0  0  0  0  0  0  0  0  0  0  0
  -17.9268   12.3943   28.3519 C   0  0  0  0  0  0  0  0  0  0  0  0
  -17.9403   13.0400   29.5911 C   0  0  0  0  0  0  0  0  0  0  0  0
  -18.7486   15.0551   31.4444 Br  0  0  0  0  0  0  0  0  0  0  0  0
  -20.1482   15.5328   28.8767 H   0  0  0  0  0  0  0  0  0  0  0  0
  -21.1959   15.6935   27.9422 H   0  0  0  0  0  0  0  0  0  0  0  0
  -22.1399   15.3598   26.4773 H   0  0  0  0  0  0  0  0  0  0  0  0
  -20.7537   16.4663   26.3933 H   0  0  0  0  0  0  0  0  0  0  0  0
  -18.0072   12.7604   25.2715 H   0  0  0  0  0  0  0  0  0  0  0  0
  -18.1903   11.1929   26.0388 H   0  0  0  0  0  0  0  0  0  0  0  0
  -21.7139   11.2535   25.7318 H   0  0  0  0  0  0  0  0  0  0  0  0
  -17.2762   11.5333   28.2161 H   0  0  0  0  0  0  0  0  0  0  0  0
  -17.3106   12.6648   30.3932 H   0  0  0  0  0  0  0  0  0  0  0  0
  1 13  1  0  0  0  0
  2  5  1  0  0  0  0
  1  3  2  0  0  0  0
  3 14  1  0  0  0  0
  4 10  1  0  0  0  0
  4 20  1  0  0  0  0
  3  5  1  0  0  0  0
  6 10  2  0  0  0  0
  2  7  1  0  0  0  0
  7 15  1  0  0  0  0
  7 16  1  0  0  0  0
  7 17  1  0  0  0  0
  5  8  2  0  0  0  0
  8  9  1  0  0  0  0
  9 18  1  0  0  0  0
  9 19  1  0  0  0  0
  9 10  1  0  0  0  0
  8 11  1  0  0  0  0
 11 21  1  0  0  0  0
  1 12  1  0  0  0  0
 11 12  2  0  0  0  0
 12 22  1  0  0  0  0
M  END
$$$$
