[65]F760
  PyMOL2.3          3D                             0

 17 18  0  0  0  0  0  0  0  0999 V2000
  -22.2790   11.7947   27.6215 C   0  0  0  0  0  0  0  0  0  0  0  0
  -21.8482   11.0635   26.5092 N   0  0  0  0  0  0  0  0  0  0  0  0
  -23.3012   11.6279   28.2689 O   0  0  0  0  0  0  0  0  0  0  0  0
  -21.2212   12.8692   27.8961 C   0  0  0  0  0  0  0  0  0  0  0  0
  -20.2134   12.6135   26.8206 C   0  0  0  0  0  0  0  0  0  0  0  0
  -20.6324   11.5427   26.0346 C   0  0  0  0  0  0  0  0  0  0  0  0
  -19.9035   11.0758   24.9595 C   0  0  0  0  0  0  0  0  0  0  0  0
  -18.7020   11.7312   24.6821 C   0  0  0  0  0  0  0  0  0  0  0  0
  -18.2618   12.8151   25.4661 C   0  0  0  0  0  0  0  0  0  0  0  0
  -19.0251   13.2637   26.5492 C   0  0  0  0  0  0  0  0  0  0  0  0
  -17.6432   11.1522   23.2228 Br  0  0  0  0  0  0  0  0  0  0  0  0
  -21.6707   13.8601   27.7930 H   0  0  0  0  0  0  0  0  0  0  0  0
  -20.7919   12.7154   28.8893 H   0  0  0  0  0  0  0  0  0  0  0  0
  -20.2541   10.2400   24.3642 H   0  0  0  0  0  0  0  0  0  0  0  0
  -17.3241   13.3170   25.2400 H   0  0  0  0  0  0  0  0  0  0  0  0
  -18.6886   14.0982   27.1547 H   0  0  0  0  0  0  0  0  0  0  0  0
  -22.3465   10.2849   26.0945 H   0  0  0  0  0  0  0  0  0  0  0  0
  1  3  2  0  0  0  0
  1  2  1  0  0  0  0
  2  6  1  0  0  0  0
  2 17  1  0  0  0  0
  1  4  1  0  0  0  0
  4 12  1  0  0  0  0
  4 13  1  0  0  0  0
  4  5  1  0  0  0  0
  5  6  2  0  0  0  0
  6  7  1  0  0  0  0
  7 14  1  0  0  0  0
  7  8  2  0  0  0  0
  8  9  1  0  0  0  0
  9 15  1  0  0  0  0
  5 10  1  0  0  0  0
  9 10  2  0  0  0  0
 10 16  1  0  0  0  0
  8 11  1  0  0  0  0
M  END
$$$$
