[84]F488
  PyMOL2.3          3D                             0

 38 39  0  0  0  0  0  0  0  0999 V2000
  -18.6174   18.4668   26.8822 C   0  0  0  0  0  0  0  0  0  0  0  0
  -18.5299   17.0215   27.0926 N   0  0  0  0  0  0  0  0  0  0  0  0
  -18.1288   14.8403   23.9119 O   0  0  0  0  0  0  0  0  0  0  0  0
  -17.2483   16.5025   26.5831 C   0  0  0  0  0  0  0  0  0  0  0  0
  -18.3045   14.3217   26.1702 N   0  0  0  0  0  0  0  0  0  0  0  0
  -18.3670   11.6306   25.5953 O   0  0  0  0  0  0  0  0  0  0  0  0
  -17.1557   14.9839   26.7737 C   0  0  0  0  0  0  0  0  0  0  0  0
  -19.5847   14.8231   26.6548 C   0  0  0  0  0  0  0  0  0  0  0  0
  -19.6771   16.3413   26.4642 C   0  0  0  0  0  0  0  0  0  0  0  0
  -18.2107   14.0085   24.8150 C   0  0  0  0  0  0  0  0  0  0  0  0
  -18.2513   12.5227   24.5038 C   0  0  0  0  0  0  0  0  0  0  0  0
  -19.5711   11.6026   26.2476 C   0  0  0  0  0  0  0  0  0  0  0  0
  -19.5572   11.9745   27.5952 C   0  0  0  0  0  0  0  0  0  0  0  0
  -20.7562   12.1142   28.3013 C   0  0  0  0  0  0  0  0  0  0  0  0
  -21.9831   11.8678   27.6741 C   0  0  0  0  0  0  0  0  0  0  0  0
  -23.2730   12.0571   28.4156 C   0  0  0  0  0  0  0  0  0  0  0  0
  -21.9906   11.4849   26.3276 C   0  0  0  0  0  0  0  0  0  0  0  0
  -20.7942   11.3752   25.6119 C   0  0  0  0  0  0  0  0  0  0  0  0
  -17.7576   18.9784   27.3291 H   0  0  0  0  0  0  0  0  0  0  0  0
  -18.6522   18.7258   25.8174 H   0  0  0  0  0  0  0  0  0  0  0  0
  -19.5153   18.8694   27.3625 H   0  0  0  0  0  0  0  0  0  0  0  0
  -16.4151   16.9711   27.1200 H   0  0  0  0  0  0  0  0  0  0  0  0
  -17.1325   16.7520   25.5202 H   0  0  0  0  0  0  0  0  0  0  0  0
  -16.2371   14.6021   26.3149 H   0  0  0  0  0  0  0  0  0  0  0  0
  -17.1408   14.7273   27.8394 H   0  0  0  0  0  0  0  0  0  0  0  0
  -19.6680   14.5620   27.7165 H   0  0  0  0  0  0  0  0  0  0  0  0
  -20.3975   14.3259   26.1138 H   0  0  0  0  0  0  0  0  0  0  0  0
  -20.6119   16.6938   26.9162 H   0  0  0  0  0  0  0  0  0  0  0  0
  -19.7210   16.5767   25.3926 H   0  0  0  0  0  0  0  0  0  0  0  0
  -19.1421   12.3685   23.8828 H   0  0  0  0  0  0  0  0  0  0  0  0
  -17.3956   12.3108   23.8551 H   0  0  0  0  0  0  0  0  0  0  0  0
  -18.6181   12.2003   28.0935 H   0  0  0  0  0  0  0  0  0  0  0  0
  -20.7269   12.4397   29.3388 H   0  0  0  0  0  0  0  0  0  0  0  0
  -23.1521   11.8379   29.4811 H   0  0  0  0  0  0  0  0  0  0  0  0
  -23.6093   13.0937   28.3091 H   0  0  0  0  0  0  0  0  0  0  0  0
  -24.0548   11.3976   28.0248 H   0  0  0  0  0  0  0  0  0  0  0  0
  -22.9315   11.2951   25.8168 H   0  0  0  0  0  0  0  0  0  0  0  0
  -20.8503   11.1303   24.5558 H   0  0  0  0  0  0  0  0  0  0  0  0
  1 19  1  0  0  0  0
  1 20  1  0  0  0  0
  1 21  1  0  0  0  0
  1  2  1  0  0  0  0
  3 10  2  0  0  0  0
  2  4  1  0  0  0  0
  4 22  1  0  0  0  0
  4 23  1  0  0  0  0
  5  7  1  0  0  0  0
  6 11  1  0  0  0  0
  4  7  1  0  0  0  0
  7 24  1  0  0  0  0
  7 25  1  0  0  0  0
  5  8  1  0  0  0  0
  8 26  1  0  0  0  0
  8 27  1  0  0  0  0
  2  9  1  0  0  0  0
  8  9  1  0  0  0  0
  9 28  1  0  0  0  0
  9 29  1  0  0  0  0
  5 10  1  0  0  0  0
 10 11  1  0  0  0  0
 11 30  1  0  0  0  0
 11 31  1  0  0  0  0
  6 12  1  0  0  0  0
 12 13  1  0  0  0  0
 13 32  1  0  0  0  0
 13 14  2  0  0  0  0
 14 33  1  0  0  0  0
 14 15  1  0  0  0  0
 15 16  1  0  0  0  0
 16 34  1  0  0  0  0
 16 35  1  0  0  0  0
 16 36  1  0  0  0  0
 15 17  2  0  0  0  0
 17 37  1  0  0  0  0
 12 18  2  0  0  0  0
 17 18  1  0  0  0  0
 18 38  1  0  0  0  0
M  END
$$$$
