[43]F126
  PyMOL2.3          3D                             0

 23 23  0  0  0  0  0  0  0  0999 V2000
  -18.9596   17.1875   27.0653 C   0  0  0  0  0  0  0  0  0  0  0  0
  -19.3968   14.0063   27.4052 N   0  0  0  0  0  0  0  0  0  0  0  0
  -17.3409   11.6150   23.5477 O   0  0  0  0  0  0  0  0  0  0  0  0
  -17.9940   16.0378   27.4039 C   0  0  0  0  0  0  0  0  0  0  0  0
  -17.7279   14.2997   25.7192 N   0  0  0  0  0  0  0  0  0  0  0  0
  -16.5709   16.4382   27.0016 C   0  0  0  0  0  0  0  0  0  0  0  0
  -16.4535   13.7474   23.6047 N   0  0  0  0  0  0  0  0  0  0  0  0
  -18.3921   14.7017   26.8154 C   0  0  0  0  0  0  0  0  0  0  0  0
  -19.6980   12.8053   26.8539 C   0  0  0  0  0  0  0  0  0  0  0  0
  -19.0467   12.2865   25.7535 C   0  0  0  0  0  0  0  0  0  0  0  0
  -18.0615   13.0935   25.2232 C   0  0  0  0  0  0  0  0  0  0  0  0
  -17.2462   12.7191   24.0638 C   0  0  0  0  0  0  0  0  0  0  0  0
  -19.4585   10.7426   25.1343 Cl  0  0  0  0  0  0  0  0  0  0  0  0
  -19.9788   16.9793   27.4069 H   0  0  0  0  0  0  0  0  0  0  0  0
  -18.6357   18.1038   27.5710 H   0  0  0  0  0  0  0  0  0  0  0  0
  -18.9957   17.4007   25.9901 H   0  0  0  0  0  0  0  0  0  0  0  0
  -18.0267   15.9021   28.4914 H   0  0  0  0  0  0  0  0  0  0  0  0
  -16.0406   15.6623   26.4398 H   0  0  0  0  0  0  0  0  0  0  0  0
  -15.9886   16.6522   27.9032 H   0  0  0  0  0  0  0  0  0  0  0  0
  -16.5578   17.3413   26.3809 H   0  0  0  0  0  0  0  0  0  0  0  0
  -20.4946   12.2590   27.3525 H   0  0  0  0  0  0  0  0  0  0  0  0
  -16.5133   13.9091   22.6031 H   0  0  0  0  0  0  0  0  0  0  0  0
  -15.4782   13.7105   23.8824 H   0  0  0  0  0  0  0  0  0  0  0  0
  1 14  1  0  0  0  0
  1 15  1  0  0  0  0
  1 16  1  0  0  0  0
  2  8  1  0  0  0  0
  3 12  2  0  0  0  0
  1  4  1  0  0  0  0
  4 17  1  0  0  0  0
  5  8  2  0  0  0  0
  5 11  1  0  0  0  0
  4  6  1  0  0  0  0
  6 18  1  0  0  0  0
  6 19  1  0  0  0  0
  6 20  1  0  0  0  0
  7 12  1  0  0  0  0
  7 22  1  0  0  0  0
  7 23  1  0  0  0  0
  4  8  1  0  0  0  0
  2  9  2  0  0  0  0
  9 21  1  0  0  0  0
  9 10  1  0  0  0  0
 10 11  2  0  0  0  0
 11 12  1  0  0  0  0
 10 13  1  0  0  0  0
M  END
$$$$
