[00]16640642
  PyMOL2.3          3D                             0

 16 16  0  0  0  0  0  0  0  0999 V2000
  -18.6732   11.3077   24.2192 C   0  0  0  0  0  0  0  0  0  0  0  0
  -18.8004   12.4049   25.1750 N   0  0  0  0  0  0  0  0  0  0  0  0
  -17.4593   10.5913   22.2411 O   0  0  0  0  0  0  0  0  0  0  0  0
  -17.4851   11.5567   23.2703 C   0  0  0  0  0  0  0  0  0  0  0  0
  -19.2844   12.1707   26.4045 N   0  0  0  0  0  0  0  0  0  0  0  0
  -18.5104   13.7306   24.9733 C   0  0  0  0  0  0  0  0  0  0  0  0
  -18.8191   14.3721   26.1588 C   0  0  0  0  0  0  0  0  0  0  0  0
  -19.2882   13.3472   26.9893 C   0  0  0  0  0  0  0  0  0  0  0  0
  -18.6491   16.2227   26.5654 Br  0  0  0  0  0  0  0  0  0  0  0  0
  -18.5265   10.3954   24.8000 H   0  0  0  0  0  0  0  0  0  0  0  0
  -19.6167   11.2625   23.6722 H   0  0  0  0  0  0  0  0  0  0  0  0
  -16.5450   11.5397   23.8235 H   0  0  0  0  0  0  0  0  0  0  0  0
  -17.5288   12.5598   22.8438 H   0  0  0  0  0  0  0  0  0  0  0  0
  -18.1214   14.0866   24.0307 H   0  0  0  0  0  0  0  0  0  0  0  0
  -19.6293   13.4684   28.0069 H   0  0  0  0  0  0  0  0  0  0  0  0
  -16.7171   10.7810   21.6624 H   0  0  0  0  0  0  0  0  0  0  0  0
  1  4  1  0  0  0  0
  1 10  1  0  0  0  0
  1 11  1  0  0  0  0
  1  2  1  0  0  0  0
  2  5  4  0  0  0  0
  2  6  4  0  0  0  0
  3  4  1  0  0  0  0
  3 16  1  0  0  0  0
  4 12  1  0  0  0  0
  4 13  1  0  0  0  0
  5  8  4  0  0  0  0
  6  7  4  0  0  0  0
  6 14  1  0  0  0  0
  7  8  4  0  0  0  0
  8 15  1  0  0  0  0
  7  9  1  0  0  0  0
M  END
$$$$
