[85]F369
  PyMOL2.3          3D                             0

 32 33  0  0  0  0  0  0  0  0999 V2000
  -15.6516   12.5535   21.9035 C   0  0  0  0  0  0  0  0  0  0  0  0
  -17.4183   12.0027   23.5367 N   0  0  0  0  0  0  0  0  0  0  0  0
  -17.5873   13.5135   28.5108 O   0  0  0  0  0  0  0  0  0  0  0  0
  -16.7815   11.6169   22.2958 C   0  0  0  0  0  0  0  0  0  0  0  0
  -18.1513   14.0521   26.3444 N   0  0  0  0  0  0  0  0  0  0  0  0
  -17.3220   13.2216   24.1440 C   0  0  0  0  0  0  0  0  0  0  0  0
  -18.1784   11.1206   24.2116 N   0  0  0  0  0  0  0  0  0  0  0  0
  -18.0196   13.1091   25.3267 C   0  0  0  0  0  0  0  0  0  0  0  0
  -18.4397   13.6270   27.6328 C   0  0  0  0  0  0  0  0  0  0  0  0
  -19.9222   13.3668   27.8654 C   0  0  0  0  0  0  0  0  0  0  0  0
  -20.7813   14.1348   26.8617 C   0  0  0  0  0  0  0  0  0  0  0  0
  -22.0922   14.3645   27.5905 C   0  0  0  0  0  0  0  0  0  0  0  0
  -21.6824   14.6151   29.0321 C   0  0  0  0  0  0  0  0  0  0  0  0
  -20.3956   13.8239   29.2516 C   0  0  0  0  0  0  0  0  0  0  0  0
  -18.5324   11.7970   25.3082 C   0  0  0  0  0  0  0  0  0  0  0  0
  -15.9731   13.5994   21.9199 H   0  0  0  0  0  0  0  0  0  0  0  0
  -14.7954   12.4412   22.5751 H   0  0  0  0  0  0  0  0  0  0  0  0
  -15.3127   12.3241   20.8888 H   0  0  0  0  0  0  0  0  0  0  0  0
  -17.5493   11.6074   21.5121 H   0  0  0  0  0  0  0  0  0  0  0  0
  -16.4177   10.5916   22.4219 H   0  0  0  0  0  0  0  0  0  0  0  0
  -16.7521   14.0329   23.7063 H   0  0  0  0  0  0  0  0  0  0  0  0
  -17.4528   14.7919   26.2896 H   0  0  0  0  0  0  0  0  0  0  0  0
  -20.1295   12.2930   27.7597 H   0  0  0  0  0  0  0  0  0  0  0  0
  -20.9287   13.5581   25.9408 H   0  0  0  0  0  0  0  0  0  0  0  0
  -20.3233   15.0915   26.5852 H   0  0  0  0  0  0  0  0  0  0  0  0
  -22.7191   13.4700   27.5278 H   0  0  0  0  0  0  0  0  0  0  0  0
  -22.6599   15.2022   27.1753 H   0  0  0  0  0  0  0  0  0  0  0  0
  -21.4962   15.6843   29.1931 H   0  0  0  0  0  0  0  0  0  0  0  0
  -22.4632   14.3103   29.7369 H   0  0  0  0  0  0  0  0  0  0  0  0
  -20.5872   12.9496   29.8831 H   0  0  0  0  0  0  0  0  0  0  0  0
  -19.6646   14.4355   29.7903 H   0  0  0  0  0  0  0  0  0  0  0  0
  -19.1401   11.3025   26.0528 H   0  0  0  0  0  0  0  0  0  0  0  0
  1 16  1  0  0  0  0
  1 17  1  0  0  0  0
  1 18  1  0  0  0  0
  2  4  1  0  0  0  0
  3  9  2  0  0  0  0
  1  4  1  0  0  0  0
  4 19  1  0  0  0  0
  4 20  1  0  0  0  0
  5  8  1  0  0  0  0
  5 22  1  0  0  0  0
  2  6  1  0  0  0  0
  6 21  1  0  0  0  0
  2  7  1  0  0  0  0
  7 15  2  0  0  0  0
  6  8  2  0  0  0  0
  5  9  1  0  0  0  0
  9 10  1  0  0  0  0
 10 23  1  0  0  0  0
 10 11  1  0  0  0  0
 11 24  1  0  0  0  0
 11 25  1  0  0  0  0
 11 12  1  0  0  0  0
 12 26  1  0  0  0  0
 12 27  1  0  0  0  0
 12 13  1  0  0  0  0
 13 28  1  0  0  0  0
 13 29  1  0  0  0  0
 10 14  1  0  0  0  0
 13 14  1  0  0  0  0
 14 30  1  0  0  0  0
 14 31  1  0  0  0  0
  8 15  1  0  0  0  0
 15 32  1  0  0  0  0
M  END
$$$$
