[78]F96
  PyMOL2.3          3D                             0

 19 19  0  0  0  0  0  0  0  0999 V2000
  -17.9079   12.6592   28.9567 C   0  0  0  0  0  0  0  0  0  0  0  0
  -19.4242   12.8237   27.0875 N   0  0  0  0  0  0  0  0  0  0  0  0
  -17.9843   14.5845   27.5460 O   0  0  0  0  0  0  0  0  0  0  0  0
  -18.4305   13.4688   27.8034 C   0  0  0  0  0  0  0  0  0  0  0  0
  -16.9846   11.7195   23.4123 N   0  0  0  0  0  0  0  0  0  0  0  0
  -19.6268   13.0836   25.6735 C   0  0  0  0  0  0  0  0  0  0  0  0
  -17.6607   10.6340   23.8148 N   0  0  0  0  0  0  0  0  0  0  0  0
  -18.6907   12.2747   24.8508 C   0  0  0  0  0  0  0  0  0  0  0  0
  -17.6075   12.7123   24.0473 C   0  0  0  0  0  0  0  0  0  0  0  0
  -18.6834   10.9058   24.6769 C   0  0  0  0  0  0  0  0  0  0  0  0
  -18.4174   11.6976   29.0536 H   0  0  0  0  0  0  0  0  0  0  0  0
  -18.0581   13.2338   29.8737 H   0  0  0  0  0  0  0  0  0  0  0  0
  -16.8377   12.4811   28.8160 H   0  0  0  0  0  0  0  0  0  0  0  0
  -20.1230   12.2742   27.5809 H   0  0  0  0  0  0  0  0  0  0  0  0
  -19.4871   14.1558   25.4953 H   0  0  0  0  0  0  0  0  0  0  0  0
  -20.6664   12.8346   25.4400 H   0  0  0  0  0  0  0  0  0  0  0  0
  -17.2599   13.7232   23.8928 H   0  0  0  0  0  0  0  0  0  0  0  0
  -17.3691    9.7338   23.4568 H   0  0  0  0  0  0  0  0  0  0  0  0
  -19.3076   10.1157   25.0716 H   0  0  0  0  0  0  0  0  0  0  0  0
  1 11  1  0  0  0  0
  1 12  1  0  0  0  0
  1 13  1  0  0  0  0
  2  4  1  0  0  0  0
  2 14  1  0  0  0  0
  3  4  2  0  0  0  0
  1  4  1  0  0  0  0
  5  9  2  0  0  0  0
  2  6  1  0  0  0  0
  6 15  1  0  0  0  0
  6 16  1  0  0  0  0
  5  7  1  0  0  0  0
  7 18  1  0  0  0  0
  6  8  1  0  0  0  0
  8  9  1  0  0  0  0
  9 17  1  0  0  0  0
  7 10  1  0  0  0  0
  8 10  2  0  0  0  0
 10 19  1  0  0  0  0
M  END
$$$$
