[56]F501
  PyMOL2.3          3D                             0

 24 25  0  0  0  0  0  0  0  0999 V2000
  -17.5506   12.6869   30.3975 C   0  0  0  0  0  0  0  0  0  0  0  0
  -17.8386   13.7006   29.4200 N   0  0  0  0  0  0  0  0  0  0  0  0
  -18.1988   10.7555   24.3071 O   0  0  0  0  0  0  0  0  0  0  0  0
  -18.3651   14.8306   27.6636 C   0  0  0  0  0  0  0  0  0  0  0  0
  -17.8201   15.0074   29.7619 N   0  0  0  0  0  0  0  0  0  0  0  0
  -20.2603   11.2725   25.0955 O   0  0  0  0  0  0  0  0  0  0  0  0
  -18.7707   15.1612   26.2809 C   0  0  0  0  0  0  0  0  0  0  0  0
  -18.1448   15.7138   28.6778 N   0  0  0  0  0  0  0  0  0  0  0  0
  -19.3150   13.8979   25.5697 C   0  0  0  0  0  0  0  0  0  0  0  0
  -18.4316   12.6420   25.8231 C   0  0  0  0  0  0  0  0  0  0  0  0
  -18.3600   12.3064   27.3361 C   0  0  0  0  0  0  0  0  0  0  0  0
  -18.1672   13.5485   28.1109 C   0  0  0  0  0  0  0  0  0  0  0  0
  -18.9243   11.4718   24.9850 C   0  0  0  0  0  0  0  0  0  0  0  0
  -17.7903   11.7011   29.9914 H   0  0  0  0  0  0  0  0  0  0  0  0
  -16.4878   12.7382   30.6441 H   0  0  0  0  0  0  0  0  0  0  0  0
  -18.1613   12.8717   31.2844 H   0  0  0  0  0  0  0  0  0  0  0  0
  -17.9031   15.5445   25.7309 H   0  0  0  0  0  0  0  0  0  0  0  0
  -19.5360   15.9444   26.2814 H   0  0  0  0  0  0  0  0  0  0  0  0
  -19.4081   14.1022   24.4964 H   0  0  0  0  0  0  0  0  0  0  0  0
  -20.3312   13.6904   25.9332 H   0  0  0  0  0  0  0  0  0  0  0  0
  -17.4170   12.8665   25.4632 H   0  0  0  0  0  0  0  0  0  0  0  0
  -17.5513   11.5912   27.5235 H   0  0  0  0  0  0  0  0  0  0  0  0
  -19.2991   11.8434   27.6638 H   0  0  0  0  0  0  0  0  0  0  0  0
  -20.6283   10.7643   24.3424 H   0  0  0  0  0  0  0  0  0  0  0  0
  1 14  1  0  0  0  0
  1 15  1  0  0  0  0
  1 16  1  0  0  0  0
  1  2  1  0  0  0  0
  3 13  2  0  0  0  0
  4  8  1  0  0  0  0
  2  5  1  0  0  0  0
  6 13  1  0  0  0  0
  6 24  1  0  0  0  0
  4  7  1  0  0  0  0
  7 17  1  0  0  0  0
  7 18  1  0  0  0  0
  5  8  2  0  0  0  0
  7  9  1  0  0  0  0
  9 19  1  0  0  0  0
  9 20  1  0  0  0  0
  9 10  1  0  0  0  0
 10 21  1  0  0  0  0
 10 11  1  0  0  0  0
 11 22  1  0  0  0  0
 11 23  1  0  0  0  0
  2 12  1  0  0  0  0
  4 12  2  0  0  0  0
 11 12  1  0  0  0  0
 10 13  1  0  0  0  0
M  END
$$$$
