[78]F603
  PyMOL2.3          3D                             0

 24 25  0  0  0  0  0  0  0  0999 V2000
  -19.6605   10.5704   25.1755 C   0  0  0  0  0  0  0  0  0  0  0  0
  -19.2735   14.5460   27.5351 N   0  0  0  0  0  0  0  0  0  0  0  0
  -20.7670   12.5022   23.8200 O   0  0  0  0  0  0  0  0  0  0  0  0
  -20.2994   12.2272   25.1652 S   0  0  0  0  0  0  0  0  0  0  0  0
  -18.8378   13.2073   25.4650 C   0  0  0  0  0  0  0  0  0  0  0  0
  -18.1651   12.6411   27.8045 N   0  0  0  0  0  0  0  0  0  0  0  0
  -21.1813   12.3566   26.3094 O   0  0  0  0  0  0  0  0  0  0  0  0
  -18.7735   13.4949   26.9159 C   0  0  0  0  0  0  0  0  0  0  0  0
  -18.9734   14.3680   28.8652 C   0  0  0  0  0  0  0  0  0  0  0  0
  -19.2634   15.1822   29.9729 C   0  0  0  0  0  0  0  0  0  0  0  0
  -18.8418   14.7609   31.2400 C   0  0  0  0  0  0  0  0  0  0  0  0
  -18.1483   13.5596   31.4048 C   0  0  0  0  0  0  0  0  0  0  0  0
  -17.8502   12.7383   30.3124 C   0  0  0  0  0  0  0  0  0  0  0  0
  -18.2798   13.1788   29.0601 C   0  0  0  0  0  0  0  0  0  0  0  0
  -20.4868    9.8833   24.9827 H   0  0  0  0  0  0  0  0  0  0  0  0
  -18.9045   10.4794   24.3932 H   0  0  0  0  0  0  0  0  0  0  0  0
  -19.2220   10.3685   26.1547 H   0  0  0  0  0  0  0  0  0  0  0  0
  -18.9098   14.1172   24.8621 H   0  0  0  0  0  0  0  0  0  0  0  0
  -17.9700   12.6269   25.1398 H   0  0  0  0  0  0  0  0  0  0  0  0
  -19.8021   16.1170   29.8552 H   0  0  0  0  0  0  0  0  0  0  0  0
  -19.0585   15.3783   32.1079 H   0  0  0  0  0  0  0  0  0  0  0  0
  -17.8340   13.2563   32.4005 H   0  0  0  0  0  0  0  0  0  0  0  0
  -17.3125   11.8053   30.4374 H   0  0  0  0  0  0  0  0  0  0  0  0
  -17.7114   11.7676   27.5719 H   0  0  0  0  0  0  0  0  0  0  0  0
  1 15  1  0  0  0  0
  1 16  1  0  0  0  0
  1 17  1  0  0  0  0
  2  8  2  0  0  0  0
  3  4  2  0  0  0  0
  1  4  1  0  0  0  0
  4  5  1  0  0  0  0
  5 18  1  0  0  0  0
  5 19  1  0  0  0  0
  6  8  1  0  0  0  0
  6 14  1  0  0  0  0
  6 24  1  0  0  0  0
  4  7  2  0  0  0  0
  5  8  1  0  0  0  0
  2  9  1  0  0  0  0
  9 10  1  0  0  0  0
 10 20  1  0  0  0  0
 10 11  2  0  0  0  0
 11 21  1  0  0  0  0
 11 12  1  0  0  0  0
 12 22  1  0  0  0  0
 12 13  2  0  0  0  0
 13 23  1  0  0  0  0
  9 14  2  0  0  0  0
 13 14  1  0  0  0  0
M  END
$$$$
