[60]F389
  PyMOL2.3          3D                             0

 18 18  0  0  0  0  0  0  0  0999 V2000
  -22.3620   11.7861   28.2969 C   0  0  0  0  0  0  0  0  0  0  0  0
  -17.3639   11.2210   23.5361 N   0  0  0  0  0  0  0  0  0  0  0  0
  -20.5986   12.0304   26.6830 O   0  0  0  0  0  0  0  0  0  0  0  0
  -21.3907   12.7505   27.6451 C   0  0  0  0  0  0  0  0  0  0  0  0
  -17.9898   10.1712   24.0930 N   0  0  0  0  0  0  0  0  0  0  0  0
  -19.3781   13.9178   26.1694 O   0  0  0  0  0  0  0  0  0  0  0  0
  -19.6231   12.7267   26.0279 C   0  0  0  0  0  0  0  0  0  0  0  0
  -18.8654   11.8886   25.1319 C   0  0  0  0  0  0  0  0  0  0  0  0
  -17.9017   12.2656   24.1705 C   0  0  0  0  0  0  0  0  0  0  0  0
  -18.8882   10.5137   25.0613 C   0  0  0  0  0  0  0  0  0  0  0  0
  -23.1233   11.4511   27.5863 H   0  0  0  0  0  0  0  0  0  0  0  0
  -22.8691   12.2769   29.1338 H   0  0  0  0  0  0  0  0  0  0  0  0
  -21.8402   10.9074   28.6892 H   0  0  0  0  0  0  0  0  0  0  0  0
  -20.7738   13.2171   28.4195 H   0  0  0  0  0  0  0  0  0  0  0  0
  -21.9335   13.5388   27.1142 H   0  0  0  0  0  0  0  0  0  0  0  0
  -17.5613   13.2598   23.9171 H   0  0  0  0  0  0  0  0  0  0  0  0
  -17.7504    9.2429   23.7676 H   0  0  0  0  0  0  0  0  0  0  0  0
  -19.4482    9.7634   25.6011 H   0  0  0  0  0  0  0  0  0  0  0  0
  1 11  1  0  0  0  0
  1 12  1  0  0  0  0
  1 13  1  0  0  0  0
  2  9  2  0  0  0  0
  3  4  1  0  0  0  0
  1  4  1  0  0  0  0
  4 14  1  0  0  0  0
  4 15  1  0  0  0  0
  2  5  1  0  0  0  0
  5 17  1  0  0  0  0
  6  7  2  0  0  0  0
  3  7  1  0  0  0  0
  7  8  1  0  0  0  0
  8  9  1  0  0  0  0
  9 16  1  0  0  0  0
  5 10  1  0  0  0  0
  8 10  2  0  0  0  0
 10 18  1  0  0  0  0
M  END
$$$$
