[83]F503
  PyMOL2.3          3D                             0

 29 30  0  0  0  0  0  0  0  0999 V2000
  -16.2524   11.0628   21.9343 C   0  0  0  0  0  0  0  0  0  0  0  0
  -17.0765   11.3127   23.0949 N   0  0  0  0  0  0  0  0  0  0  0  0
  -16.3639   13.5015   23.3953 O   0  0  0  0  0  0  0  0  0  0  0  0
  -17.0798   12.5557   23.7109 C   0  0  0  0  0  0  0  0  0  0  0  0
  -18.0616   12.6728   24.8623 C   0  0  0  0  0  0  0  0  0  0  0  0
  -17.9431   13.9080   25.7601 C   0  0  0  0  0  0  0  0  0  0  0  0
  -19.0301   14.0842   26.7971 C   0  0  0  0  0  0  0  0  0  0  0  0
  -20.1894   14.8003   26.4552 C   0  0  0  0  0  0  0  0  0  0  0  0
  -21.1893   15.0462   27.4011 C   0  0  0  0  0  0  0  0  0  0  0  0
  -21.0518   14.5723   28.7032 C   0  0  0  0  0  0  0  0  0  0  0  0
  -19.9117   13.8593   29.0621 C   0  0  0  0  0  0  0  0  0  0  0  0
  -18.9122   13.6306   28.1166 C   0  0  0  0  0  0  0  0  0  0  0  0
  -18.6233   11.3613   25.4084 C   0  0  0  0  0  0  0  0  0  0  0  0
  -19.4949   12.2279   24.5655 C   0  0  0  0  0  0  0  0  0  0  0  0
  -17.8243   12.9534   28.5069 F   0  0  0  0  0  0  0  0  0  0  0  0
  -16.2406    9.9874   21.7494 H   0  0  0  0  0  0  0  0  0  0  0  0
  -16.6835   11.5777   21.0744 H   0  0  0  0  0  0  0  0  0  0  0  0
  -15.2331   11.4083   22.1181 H   0  0  0  0  0  0  0  0  0  0  0  0
  -17.9476   10.7929   23.1180 H   0  0  0  0  0  0  0  0  0  0  0  0
  -16.9840   13.8923   26.2941 H   0  0  0  0  0  0  0  0  0  0  0  0
  -17.8944   14.7989   25.1208 H   0  0  0  0  0  0  0  0  0  0  0  0
  -20.3180   15.1917   25.4479 H   0  0  0  0  0  0  0  0  0  0  0  0
  -22.0726   15.6121   27.1213 H   0  0  0  0  0  0  0  0  0  0  0  0
  -21.8277   14.7639   29.4388 H   0  0  0  0  0  0  0  0  0  0  0  0
  -19.7965   13.4873   30.0763 H   0  0  0  0  0  0  0  0  0  0  0  0
  -18.2699   10.4316   24.9756 H   0  0  0  0  0  0  0  0  0  0  0  0
  -18.8903   11.2728   26.4541 H   0  0  0  0  0  0  0  0  0  0  0  0
  -19.7512   11.8674   23.5763 H   0  0  0  0  0  0  0  0  0  0  0  0
  -20.3151   12.7369   25.0587 H   0  0  0  0  0  0  0  0  0  0  0  0
  1 16  1  0  0  0  0
  1 17  1  0  0  0  0
  1 18  1  0  0  0  0
  1  2  1  0  0  0  0
  2 19  1  0  0  0  0
  3  4  2  0  0  0  0
  2  4  1  0  0  0  0
  4  5  1  0  0  0  0
  5  6  1  0  0  0  0
  6 20  1  0  0  0  0
  6 21  1  0  0  0  0
  6  7  1  0  0  0  0
  7  8  1  0  0  0  0
  8 22  1  0  0  0  0
  8  9  2  0  0  0  0
  9 23  1  0  0  0  0
  9 10  1  0  0  0  0
 10 24  1  0  0  0  0
 10 11  2  0  0  0  0
 11 25  1  0  0  0  0
  7 12  2  0  0  0  0
 11 12  1  0  0  0  0
  5 13  1  0  0  0  0
 13 26  1  0  0  0  0
 13 27  1  0  0  0  0
  5 14  1  0  0  0  0
 13 14  1  0  0  0  0
 14 28  1  0  0  0  0
 14 29  1  0  0  0  0
 12 15  1  0  0  0  0
M  END
$$$$
