[76]F274
  PyMOL2.3          3D                             0

 26 27  0  0  0  0  0  0  0  0999 V2000
  -17.8716   12.8826   30.9987 C   0  0  0  0  0  0  0  0  0  0  0  0
  -19.0097   13.3635   25.5764 N   0  0  0  0  0  0  0  0  0  0  0  0
  -20.8712   12.2777   26.4474 O   0  0  0  0  0  0  0  0  0  0  0  0
  -18.4193   13.6027   29.8291 C   0  0  0  0  0  0  0  0  0  0  0  0
  -17.9347   13.3592   24.7290 N   0  0  0  0  0  0  0  0  0  0  0  0
  -19.5662   15.0668   28.7107 O   0  0  0  0  0  0  0  0  0  0  0  0
  -18.1931   13.3293   28.4618 C   0  0  0  0  0  0  0  0  0  0  0  0
  -19.2423   14.6465   29.9916 N   0  0  0  0  0  0  0  0  0  0  0  0
  -18.9346   14.2761   27.8006 C   0  0  0  0  0  0  0  0  0  0  0  0
  -19.1710   14.5771   26.3728 C   0  0  0  0  0  0  0  0  0  0  0  0
  -17.7417   12.3062   24.0044 C   0  0  0  0  0  0  0  0  0  0  0  0
  -16.5683   12.2921   23.0595 C   0  0  0  0  0  0  0  0  0  0  0  0
  -18.5868   11.1009   24.0233 C   0  0  0  0  0  0  0  0  0  0  0  0
  -19.6269   11.1163   24.8519 C   0  0  0  0  0  0  0  0  0  0  0  0
  -19.8954   12.2995   25.6974 C   0  0  0  0  0  0  0  0  0  0  0  0
  -18.0956   13.4026   31.9357 H   0  0  0  0  0  0  0  0  0  0  0  0
  -16.7839   12.7898   30.9173 H   0  0  0  0  0  0  0  0  0  0  0  0
  -18.2986   11.8763   31.0586 H   0  0  0  0  0  0  0  0  0  0  0  0
  -17.5825   12.5539   28.0227 H   0  0  0  0  0  0  0  0  0  0  0  0
  -18.4810   15.3485   26.0137 H   0  0  0  0  0  0  0  0  0  0  0  0
  -20.1865   14.9606   26.2193 H   0  0  0  0  0  0  0  0  0  0  0  0
  -16.9295   12.2402   22.0287 H   0  0  0  0  0  0  0  0  0  0  0  0
  -15.9699   13.2003   23.1773 H   0  0  0  0  0  0  0  0  0  0  0  0
  -15.9342   11.4260   23.2687 H   0  0  0  0  0  0  0  0  0  0  0  0
  -18.3540   10.2570   23.3881 H   0  0  0  0  0  0  0  0  0  0  0  0
  -20.2982   10.2689   24.9284 H   0  0  0  0  0  0  0  0  0  0  0  0
  1 16  1  0  0  0  0
  1 17  1  0  0  0  0
  1 18  1  0  0  0  0
  2 10  1  0  0  0  0
  3 15  2  0  0  0  0
  1  4  1  0  0  0  0
  2  5  1  0  0  0  0
  6  9  1  0  0  0  0
  4  7  1  0  0  0  0
  7 19  1  0  0  0  0
  4  8  2  0  0  0  0
  6  8  1  0  0  0  0
  7  9  2  0  0  0  0
  9 10  1  0  0  0  0
 10 20  1  0  0  0  0
 10 21  1  0  0  0  0
  5 11  2  0  0  0  0
 11 12  1  0  0  0  0
 12 22  1  0  0  0  0
 12 23  1  0  0  0  0
 12 24  1  0  0  0  0
 11 13  1  0  0  0  0
 13 25  1  0  0  0  0
 13 14  2  0  0  0  0
 14 26  1  0  0  0  0
  2 15  1  0  0  0  0
 14 15  1  0  0  0  0
M  END
$$$$
