[75]F11
  PyMOL2.3          3D                             0

 16 17  0  0  0  0  0  0  0  0999 V2000
  -19.9289   13.2016   26.6966 C   0  0  0  0  0  0  0  0  0  0  0  0
  -18.2135   14.4378   24.9291 N   0  0  0  0  0  0  0  0  0  0  0  0
  -19.7420   14.5744   26.7726 C   0  0  0  0  0  0  0  0  0  0  0  0
  -17.7033   12.4769   23.8996 N   0  0  0  0  0  0  0  0  0  0  0  0
  -18.8761   15.1405   25.8682 C   0  0  0  0  0  0  0  0  0  0  0  0
  -18.3867   13.1178   24.8489 C   0  0  0  0  0  0  0  0  0  0  0  0
  -17.8379   11.1404   23.7729 C   0  0  0  0  0  0  0  0  0  0  0  0
  -18.6528   10.3755   24.5758 C   0  0  0  0  0  0  0  0  0  0  0  0
  -19.3691   11.0307   25.5658 C   0  0  0  0  0  0  0  0  0  0  0  0
  -19.2495   12.4319   25.7248 C   0  0  0  0  0  0  0  0  0  0  0  0
  -21.1319   12.4307   27.9547 Br  0  0  0  0  0  0  0  0  0  0  0  0
  -20.2489   15.1889   27.5075 H   0  0  0  0  0  0  0  0  0  0  0  0
  -18.6796   16.2090   25.8677 H   0  0  0  0  0  0  0  0  0  0  0  0
  -17.2487   10.6924   22.9777 H   0  0  0  0  0  0  0  0  0  0  0  0
  -18.7287    9.3032   24.4371 H   0  0  0  0  0  0  0  0  0  0  0  0
  -20.0175   10.4427   26.2093 H   0  0  0  0  0  0  0  0  0  0  0  0
  1 11  1  0  0  0  0
  2  5  2  0  0  0  0
  1  3  2  0  0  0  0
  3 12  1  0  0  0  0
  4  6  2  0  0  0  0
  3  5  1  0  0  0  0
  5 13  1  0  0  0  0
  2  6  1  0  0  0  0
  4  7  1  0  0  0  0
  7 14  1  0  0  0  0
  7  8  2  0  0  0  0
  8 15  1  0  0  0  0
  8  9  1  0  0  0  0
  9 16  1  0  0  0  0
  1 10  1  0  0  0  0
  6 10  1  0  0  0  0
  9 10  2  0  0  0  0
M  END
$$$$
