[30]F199
  PyMOL2.3          3D                             0

 25 26  0  0  0  0  0  0  0  0999 V2000
  -23.6062   14.9092   29.5003 C   0  0  0  0  0  0  0  0  0  0  0  0
  -21.6772   12.6810   27.3939 N   0  0  0  0  0  0  0  0  0  0  0  0
  -22.6790   13.0315   28.2874 O   0  0  0  0  0  0  0  0  0  0  0  0
  -22.5957   14.3604   28.5713 C   0  0  0  0  0  0  0  0  0  0  0  0
  -19.7459   12.7170   25.4020 N   0  0  0  0  0  0  0  0  0  0  0  0
  -19.1349   14.8352   26.1468 O   0  0  0  0  0  0  0  0  0  0  0  0
  -21.5390   14.8979   27.8780 C   0  0  0  0  0  0  0  0  0  0  0  0
  -17.1801   11.1546   23.3853 N   0  0  0  0  0  0  0  0  0  0  0  0
  -20.9969   13.8099   27.1369 C   0  0  0  0  0  0  0  0  0  0  0  0
  -16.8079   12.4474   23.3987 N   0  0  0  0  0  0  0  0  0  0  0  0
  -19.8648   13.8483   26.2037 C   0  0  0  0  0  0  0  0  0  0  0  0
  -18.6591   12.4344   24.5792 C   0  0  0  0  0  0  0  0  0  0  0  0
  -18.3044   11.1533   24.1050 C   0  0  0  0  0  0  0  0  0  0  0  0
  -15.5694   12.8362   22.7689 C   0  0  0  0  0  0  0  0  0  0  0  0
  -17.6710   13.2619   24.0862 C   0  0  0  0  0  0  0  0  0  0  0  0
  -23.2233   15.7854   30.0333 H   0  0  0  0  0  0  0  0  0  0  0  0
  -24.5036   15.2143   28.9526 H   0  0  0  0  0  0  0  0  0  0  0  0
  -23.9043   14.1688   30.2507 H   0  0  0  0  0  0  0  0  0  0  0  0
  -21.2141   15.9280   27.8914 H   0  0  0  0  0  0  0  0  0  0  0  0
  -20.3626   11.9262   25.5744 H   0  0  0  0  0  0  0  0  0  0  0  0
  -18.8113   10.2123   24.2629 H   0  0  0  0  0  0  0  0  0  0  0  0
  -15.7392   13.7360   22.1738 H   0  0  0  0  0  0  0  0  0  0  0  0
  -15.2179   12.0304   22.1175 H   0  0  0  0  0  0  0  0  0  0  0  0
  -14.8304   13.0236   23.5521 H   0  0  0  0  0  0  0  0  0  0  0  0
  -17.4950   14.3256   24.1685 H   0  0  0  0  0  0  0  0  0  0  0  0
  1 16  1  0  0  0  0
  1 17  1  0  0  0  0
  1 18  1  0  0  0  0
  2  9  2  0  0  0  0
  2  3  1  0  0  0  0
  3  4  1  0  0  0  0
  1  4  1  0  0  0  0
  5 11  1  0  0  0  0
  5 20  1  0  0  0  0
  6 11  2  0  0  0  0
  4  7  2  0  0  0  0
  7 19  1  0  0  0  0
  8 13  2  0  0  0  0
  7  9  1  0  0  0  0
  8 10  1  0  0  0  0
  9 11  1  0  0  0  0
  5 12  1  0  0  0  0
 12 13  1  0  0  0  0
 13 21  1  0  0  0  0
 10 14  1  0  0  0  0
 14 22  1  0  0  0  0
 14 23  1  0  0  0  0
 14 24  1  0  0  0  0
 10 15  1  0  0  0  0
 12 15  2  0  0  0  0
 15 25  1  0  0  0  0
M  END
$$$$
