[61]F600
  PyMOL2.3          3D                             0

 16 16  0  0  0  0  0  0  0  0999 V2000
  -22.5203   11.6558   28.3127 C   0  0  0  0  0  0  0  0  0  0  0  0
  -19.0139   13.2489   25.4416 N   0  0  0  0  0  0  0  0  0  0  0  0
  -21.8168   11.8206   27.0876 O   0  0  0  0  0  0  0  0  0  0  0  0
  -19.3772   10.7257   25.5225 S   0  0  0  0  0  0  0  0  0  0  0  0
  -20.6352   12.6103   27.2066 C   0  0  0  0  0  0  0  0  0  0  0  0
  -18.2165   12.7229   24.4444 N   0  0  0  0  0  0  0  0  0  0  0  0
  -19.6935   12.3194   26.0815 C   0  0  0  0  0  0  0  0  0  0  0  0
  -17.6620   10.6201   23.4611 N   0  0  0  0  0  0  0  0  0  0  0  0
  -18.3113   11.4128   24.3545 C   0  0  0  0  0  0  0  0  0  0  0  0
  -23.5906   11.6467   28.0879 H   0  0  0  0  0  0  0  0  0  0  0  0
  -22.2458   10.6984   28.7623 H   0  0  0  0  0  0  0  0  0  0  0  0
  -22.3249   12.4655   29.0224 H   0  0  0  0  0  0  0  0  0  0  0  0
  -20.8867   13.6769   27.2490 H   0  0  0  0  0  0  0  0  0  0  0  0
  -20.1529   12.3491   28.1541 H   0  0  0  0  0  0  0  0  0  0  0  0
  -16.6521   10.7469   23.4447 H   0  0  0  0  0  0  0  0  0  0  0  0
  -17.8446    9.6249   23.5716 H   0  0  0  0  0  0  0  0  0  0  0  0
  1 10  1  0  0  0  0
  1 11  1  0  0  0  0
  1 12  1  0  0  0  0
  2  7  2  0  0  0  0
  1  3  1  0  0  0  0
  4  7  1  0  0  0  0
  4  9  1  0  0  0  0
  3  5  1  0  0  0  0
  5 13  1  0  0  0  0
  5 14  1  0  0  0  0
  2  6  1  0  0  0  0
  5  7  1  0  0  0  0
  8  9  1  0  0  0  0
  8 15  1  0  0  0  0
  8 16  1  0  0  0  0
  6  9  2  0  0  0  0
M  END
$$$$
