[43]F740
  PyMOL2.3          3D                             0

 26 28  0  0  0  0  0  0  0  0999 V2000
  -19.3418   13.9429   26.7475 C   0  0  0  0  0  0  0  0  0  0  0  0
  -18.4819   13.3990   25.8086 N   0  0  0  0  0  0  0  0  0  0  0  0
  -20.3167   14.6308   26.4604 O   0  0  0  0  0  0  0  0  0  0  0  0
  -18.9726   12.6092   24.7218 C   0  0  0  0  0  0  0  0  0  0  0  0
  -18.4322   12.7928   32.1432 O   0  0  0  0  0  0  0  0  0  0  0  0
  -19.8655   11.4174   24.9386 C   0  0  0  0  0  0  0  0  0  0  0  0
  -20.2352   14.2875   31.5728 O   0  0  0  0  0  0  0  0  0  0  0  0
  -18.4612   11.2193   24.4499 C   0  0  0  0  0  0  0  0  0  0  0  0
  -19.0306   13.6277   28.1665 C   0  0  0  0  0  0  0  0  0  0  0  0
  -17.9614   12.7725   28.5144 C   0  0  0  0  0  0  0  0  0  0  0  0
  -17.7042   12.4531   29.8465 C   0  0  0  0  0  0  0  0  0  0  0  0
  -18.5255   13.0041   30.8038 C   0  0  0  0  0  0  0  0  0  0  0  0
  -19.5167   13.6105   32.6241 C   0  0  0  0  0  0  0  0  0  0  0  0
  -19.5578   13.8526   30.4753 C   0  0  0  0  0  0  0  0  0  0  0  0
  -19.8381   14.1876   29.1672 C   0  0  0  0  0  0  0  0  0  0  0  0
  -17.4899   13.3317   26.0160 H   0  0  0  0  0  0  0  0  0  0  0  0
  -19.1836   13.2266   23.8568 H   0  0  0  0  0  0  0  0  0  0  0  0
  -20.0947   11.1302   25.9576 H   0  0  0  0  0  0  0  0  0  0  0  0
  -20.6804   11.2787   24.2394 H   0  0  0  0  0  0  0  0  0  0  0  0
  -18.3253   10.9251   23.4158 H   0  0  0  0  0  0  0  0  0  0  0  0
  -17.7468   10.7810   25.1361 H   0  0  0  0  0  0  0  0  0  0  0  0
  -17.3120   12.3349   27.7625 H   0  0  0  0  0  0  0  0  0  0  0  0
  -16.8872   11.7904   30.1070 H   0  0  0  0  0  0  0  0  0  0  0  0
  -20.2185   12.9733   33.1740 H   0  0  0  0  0  0  0  0  0  0  0  0
  -19.1074   14.3608   33.3093 H   0  0  0  0  0  0  0  0  0  0  0  0
  -20.6621   14.8553   28.9369 H   0  0  0  0  0  0  0  0  0  0  0  0
  1  3  2  0  0  0  0
  1  2  1  0  0  0  0
  2 16  1  0  0  0  0
  2  4  1  0  0  0  0
  4 17  1  0  0  0  0
  5 12  1  0  0  0  0
  4  6  1  0  0  0  0
  6 18  1  0  0  0  0
  6 19  1  0  0  0  0
  7 13  1  0  0  0  0
  4  8  1  0  0  0  0
  6  8  1  0  0  0  0
  8 20  1  0  0  0  0
  8 21  1  0  0  0  0
  1  9  1  0  0  0  0
  9 10  1  0  0  0  0
 10 22  1  0  0  0  0
 10 11  2  0  0  0  0
 11 23  1  0  0  0  0
 11 12  1  0  0  0  0
  5 13  1  0  0  0  0
 13 24  1  0  0  0  0
 13 25  1  0  0  0  0
  7 14  1  0  0  0  0
 12 14  2  0  0  0  0
  9 15  2  0  0  0  0
 14 15  1  0  0  0  0
 15 26  1  0  0  0  0
M  END
$$$$
