[20]F687
  PyMOL2.3          3D                             0

 24 25  0  0  0  0  0  0  0  0999 V2000
  -19.9991   14.0165   28.2505 C   0  0  0  0  0  0  0  0  0  0  0  0
  -19.5742   12.7251   26.2349 N   0  0  0  0  0  0  0  0  0  0  0  0
  -19.6631   14.4512   29.5334 C   0  0  0  0  0  0  0  0  0  0  0  0
  -17.1490   10.9431   22.7896 N   0  0  0  0  0  0  0  0  0  0  0  0
  -18.5438   13.9209   30.1665 C   0  0  0  0  0  0  0  0  0  0  0  0
  -17.9810   10.4748   23.7340 N   0  0  0  0  0  0  0  0  0  0  0  0
  -17.7709   12.9645   29.5136 C   0  0  0  0  0  0  0  0  0  0  0  0
  -18.1077   12.5458   28.2212 C   0  0  0  0  0  0  0  0  0  0  0  0
  -19.2361   13.0581   27.5634 C   0  0  0  0  0  0  0  0  0  0  0  0
  -19.0893   11.4416   25.7114 C   0  0  0  0  0  0  0  0  0  0  0  0
  -18.2095   11.5432   24.5084 C   0  0  0  0  0  0  0  0  0  0  0  0
  -17.5224   12.6904   24.0384 C   0  0  0  0  0  0  0  0  0  0  0  0
  -16.8403   12.2630   22.9268 C   0  0  0  0  0  0  0  0  0  0  0  0
  -21.0742   14.5570   27.6556 F   0  0  0  0  0  0  0  0  0  0  0  0
  -20.2632   15.2069   30.0310 H   0  0  0  0  0  0  0  0  0  0  0  0
  -18.2673   14.2560   31.1616 H   0  0  0  0  0  0  0  0  0  0  0  0
  -16.8936   12.5496   30.0017 H   0  0  0  0  0  0  0  0  0  0  0  0
  -17.4576   11.8189   27.7439 H   0  0  0  0  0  0  0  0  0  0  0  0
  -20.5875   12.7857   26.1232 H   0  0  0  0  0  0  0  0  0  0  0  0
  -19.9462   10.7964   25.4735 H   0  0  0  0  0  0  0  0  0  0  0  0
  -18.5041   10.9202   26.4759 H   0  0  0  0  0  0  0  0  0  0  0  0
  -17.5186   13.6861   24.4574 H   0  0  0  0  0  0  0  0  0  0  0  0
  -16.1757   12.7679   22.2412 H   0  0  0  0  0  0  0  0  0  0  0  0
  -16.8237   10.3020   22.0757 H   0  0  0  0  0  0  0  0  0  0  0  0
  1 14  1  0  0  0  0
  2  9  1  0  0  0  0
  2 19  1  0  0  0  0
  1  3  1  0  0  0  0
  3 15  1  0  0  0  0
  4 13  1  0  0  0  0
  4 24  1  0  0  0  0
  3  5  2  0  0  0  0
  5 16  1  0  0  0  0
  4  6  1  0  0  0  0
  6 11  2  0  0  0  0
  5  7  1  0  0  0  0
  7 17  1  0  0  0  0
  7  8  2  0  0  0  0
  8 18  1  0  0  0  0
  1  9  2  0  0  0  0
  8  9  1  0  0  0  0
  2 10  1  0  0  0  0
 10 20  1  0  0  0  0
 10 21  1  0  0  0  0
 10 11  1  0  0  0  0
 11 12  1  0  0  0  0
 12 22  1  0  0  0  0
 12 13  2  0  0  0  0
 13 23  1  0  0  0  0
M  END
$$$$
