[75]F421
  PyMOL2.3          3D                             0

 19 19  0  0  0  0  0  0  0  0999 V2000
  -21.2915   10.5460   25.7517 C   0  0  0  0  0  0  0  0  0  0  0  0
  -20.0772   11.3426   25.8092 N   0  0  0  0  0  0  0  0  0  0  0  0
  -20.7641   12.6612   27.5878 O   0  0  0  0  0  0  0  0  0  0  0  0
  -18.8967   10.8100   25.1379 C   0  0  0  0  0  0  0  0  0  0  0  0
  -17.7041   15.3235   26.1079 N   0  0  0  0  0  0  0  0  0  0  0  0
  -20.0578   12.5016   26.5928 C   0  0  0  0  0  0  0  0  0  0  0  0
  -17.9488   14.8570   24.8731 N   0  0  0  0  0  0  0  0  0  0  0  0
  -19.1540   13.5479   26.1538 C   0  0  0  0  0  0  0  0  0  0  0  0
  -18.4295   14.5167   26.8864 C   0  0  0  0  0  0  0  0  0  0  0  0
  -18.8010   13.7932   24.8442 C   0  0  0  0  0  0  0  0  0  0  0  0
  -21.3857   10.1022   24.7568 H   0  0  0  0  0  0  0  0  0  0  0  0
  -21.2338    9.7559   26.5066 H   0  0  0  0  0  0  0  0  0  0  0  0
  -22.1670   11.1742   25.9381 H   0  0  0  0  0  0  0  0  0  0  0  0
  -18.9807    9.7245   25.0324 H   0  0  0  0  0  0  0  0  0  0  0  0
  -17.9924   11.0409   25.7073 H   0  0  0  0  0  0  0  0  0  0  0  0
  -18.8440   11.2543   24.1398 H   0  0  0  0  0  0  0  0  0  0  0  0
  -18.4141   14.6795   27.9547 H   0  0  0  0  0  0  0  0  0  0  0  0
  -17.4945   15.3099   24.0900 H   0  0  0  0  0  0  0  0  0  0  0  0
  -19.0702   13.3116   23.9145 H   0  0  0  0  0  0  0  0  0  0  0  0
  1 11  1  0  0  0  0
  1 12  1  0  0  0  0
  1 13  1  0  0  0  0
  1  2  1  0  0  0  0
  3  6  2  0  0  0  0
  2  4  1  0  0  0  0
  4 14  1  0  0  0  0
  4 15  1  0  0  0  0
  4 16  1  0  0  0  0
  5  9  2  0  0  0  0
  2  6  1  0  0  0  0
  5  7  1  0  0  0  0
  7 18  1  0  0  0  0
  6  8  1  0  0  0  0
  8  9  1  0  0  0  0
  9 17  1  0  0  0  0
  7 10  1  0  0  0  0
  8 10  2  0  0  0  0
 10 19  1  0  0  0  0
M  END
$$$$
