[46]F558
  PyMOL2.3          3D                             0

 32 33  0  0  0  0  0  0  0  0999 V2000
  -15.8766   11.8207   22.2311 C   0  0  0  0  0  0  0  0  0  0  0  0
  -17.6241   13.9335   24.5783 N   0  0  0  0  0  0  0  0  0  0  0  0
  -16.3187   13.0228   22.8729 O   0  0  0  0  0  0  0  0  0  0  0  0
  -17.1039   12.7946   23.9677 C   0  0  0  0  0  0  0  0  0  0  0  0
  -24.8047   12.5598   28.8202 N   0  0  0  0  0  0  0  0  0  0  0  0
  -17.3288   11.6576   24.3814 O   0  0  0  0  0  0  0  0  0  0  0  0
  -18.4247   13.9361   25.7493 C   0  0  0  0  0  0  0  0  0  0  0  0
  -19.5646   14.7358   25.8598 C   0  0  0  0  0  0  0  0  0  0  0  0
  -20.3269   14.7241   27.0278 C   0  0  0  0  0  0  0  0  0  0  0  0
  -19.9204   13.9714   28.1341 C   0  0  0  0  0  0  0  0  0  0  0  0
  -20.7622   13.9689   29.3879 C   0  0  0  0  0  0  0  0  0  0  0  0
  -22.1732   13.4708   29.1877 C   0  0  0  0  0  0  0  0  0  0  0  0
  -23.0176   14.0910   28.2641 C   0  0  0  0  0  0  0  0  0  0  0  0
  -24.3069   13.6027   28.1207 C   0  0  0  0  0  0  0  0  0  0  0  0
  -23.9651   11.9739   29.7015 C   0  0  0  0  0  0  0  0  0  0  0  0
  -22.6578   12.3808   29.9173 C   0  0  0  0  0  0  0  0  0  0  0  0
  -18.7210   13.2499   28.0540 C   0  0  0  0  0  0  0  0  0  0  0  0
  -17.9924   13.2096   26.8620 C   0  0  0  0  0  0  0  0  0  0  0  0
  -14.8694   11.9936   21.8418 H   0  0  0  0  0  0  0  0  0  0  0  0
  -16.5423   11.5854   21.3985 H   0  0  0  0  0  0  0  0  0  0  0  0
  -15.8399   10.9787   22.9310 H   0  0  0  0  0  0  0  0  0  0  0  0
  -16.9815   14.7238   24.5415 H   0  0  0  0  0  0  0  0  0  0  0  0
  -19.8841   15.3802   25.0495 H   0  0  0  0  0  0  0  0  0  0  0  0
  -21.2345   15.3214   27.0694 H   0  0  0  0  0  0  0  0  0  0  0  0
  -20.2426   13.3670   30.1435 H   0  0  0  0  0  0  0  0  0  0  0  0
  -20.8290   14.9850   29.7994 H   0  0  0  0  0  0  0  0  0  0  0  0
  -22.6829   14.9349   27.6701 H   0  0  0  0  0  0  0  0  0  0  0  0
  -24.9942   14.0547   27.4129 H   0  0  0  0  0  0  0  0  0  0  0  0
  -24.3826   11.1369   30.2515 H   0  0  0  0  0  0  0  0  0  0  0  0
  -22.0367   11.8650   30.6423 H   0  0  0  0  0  0  0  0  0  0  0  0
  -18.3441   12.7088   28.9185 H   0  0  0  0  0  0  0  0  0  0  0  0
  -17.0740   12.6288   26.8261 H   0  0  0  0  0  0  0  0  0  0  0  0
  1 19  1  0  0  0  0
  1 20  1  0  0  0  0
  1 21  1  0  0  0  0
  2  4  1  0  0  0  0
  2 22  1  0  0  0  0
  1  3  1  0  0  0  0
  3  4  1  0  0  0  0
  5 14  1  0  0  0  0
  4  6  2  0  0  0  0
  2  7  1  0  0  0  0
  7  8  1  0  0  0  0
  8 23  1  0  0  0  0
  8  9  2  0  0  0  0
  9 24  1  0  0  0  0
  9 10  1  0  0  0  0
 10 11  1  0  0  0  0
 11 25  1  0  0  0  0
 11 26  1  0  0  0  0
 11 12  1  0  0  0  0
 12 13  1  0  0  0  0
 13 27  1  0  0  0  0
 13 14  2  0  0  0  0
 14 28  1  0  0  0  0
  5 15  2  0  0  0  0
 15 29  1  0  0  0  0
 12 16  2  0  0  0  0
 15 16  1  0  0  0  0
 16 30  1  0  0  0  0
 10 17  2  0  0  0  0
 17 31  1  0  0  0  0
  7 18  2  0  0  0  0
 17 18  1  0  0  0  0
 18 32  1  0  0  0  0
M  END
$$$$
