[15]F205
  PyMOL2.3          3D                             0

 20 20  0  0  0  0  0  0  0  0999 V2000
  -21.5787   12.1142   27.7461 C   0  0  0  0  0  0  0  0  0  0  0  0
  -17.5662   14.2235   24.2599 N   0  0  0  0  0  0  0  0  0  0  0  0
  -18.6031   11.7124   23.9311 O   0  0  0  0  0  0  0  0  0  0  0  0
  -20.5058   12.6485   26.8409 C   0  0  0  0  0  0  0  0  0  0  0  0
  -20.0017   11.8632   25.7983 N   0  0  0  0  0  0  0  0  0  0  0  0
  -20.0400   13.8947   27.0225 C   0  0  0  0  0  0  0  0  0  0  0  0
  -19.0322   14.4402   26.1592 C   0  0  0  0  0  0  0  0  0  0  0  0
  -18.5273   13.7443   25.1319 C   0  0  0  0  0  0  0  0  0  0  0  0
  -19.0384   12.3503   24.8916 C   0  0  0  0  0  0  0  0  0  0  0  0
  -20.5213   10.5183   25.5598 C   0  0  0  0  0  0  0  0  0  0  0  0
  -22.4749   11.8604   27.1725 H   0  0  0  0  0  0  0  0  0  0  0  0
  -21.8793   12.8496   28.5015 H   0  0  0  0  0  0  0  0  0  0  0  0
  -21.2375   11.2265   28.2867 H   0  0  0  0  0  0  0  0  0  0  0  0
  -20.4089   14.5305   27.8199 H   0  0  0  0  0  0  0  0  0  0  0  0
  -18.6971   15.4510   26.3672 H   0  0  0  0  0  0  0  0  0  0  0  0
  -17.2148   13.4803   23.6583 H   0  0  0  0  0  0  0  0  0  0  0  0
  -17.9755   14.9389   23.6594 H   0  0  0  0  0  0  0  0  0  0  0  0
  -21.3857   10.5914   24.8942 H   0  0  0  0  0  0  0  0  0  0  0  0
  -19.7539    9.8934   25.0897 H   0  0  0  0  0  0  0  0  0  0  0  0
  -20.8108   10.0216   26.4884 H   0  0  0  0  0  0  0  0  0  0  0  0
  1 11  1  0  0  0  0
  1 12  1  0  0  0  0
  1 13  1  0  0  0  0
  2  8  1  0  0  0  0
  2 16  1  0  0  0  0
  2 17  1  0  0  0  0
  3  9  2  0  0  0  0
  1  4  1  0  0  0  0
  4  5  1  0  0  0  0
  5  9  1  0  0  0  0
  4  6  2  0  0  0  0
  6 14  1  0  0  0  0
  6  7  1  0  0  0  0
  7 15  1  0  0  0  0
  7  8  2  0  0  0  0
  8  9  1  0  0  0  0
  5 10  1  0  0  0  0
 10 18  1  0  0  0  0
 10 19  1  0  0  0  0
 10 20  1  0  0  0  0
M  END
$$$$
