[84]F14
  PyMOL2.3          3D                             0

 19 19  0  0  0  0  0  0  0  0999 V2000
  -18.9359   14.2075   26.2683 C   0  0  0  0  0  0  0  0  0  0  0  0
  -18.7117   12.2126   25.4396 N   0  0  0  0  0  0  0  0  0  0  0  0
  -16.9357   10.5554   22.7654 O   0  0  0  0  0  0  0  0  0  0  0  0
  -18.4370   13.5289   25.1902 C   0  0  0  0  0  0  0  0  0  0  0  0
  -19.3541   12.0059   26.6095 N   0  0  0  0  0  0  0  0  0  0  0  0
  -18.4329   11.0957   24.5624 C   0  0  0  0  0  0  0  0  0  0  0  0
  -17.8952   11.5171   23.2008 C   0  0  0  0  0  0  0  0  0  0  0  0
  -15.8833   11.1488   22.0164 C   0  0  0  0  0  0  0  0  0  0  0  0
  -19.4920   13.2376   27.1083 C   0  0  0  0  0  0  0  0  0  0  0  0
  -18.9198   16.0451   26.5899 Br  0  0  0  0  0  0  0  0  0  0  0  0
  -17.9345   13.8567   24.2879 H   0  0  0  0  0  0  0  0  0  0  0  0
  -17.7234   10.4421   25.0808 H   0  0  0  0  0  0  0  0  0  0  0  0
  -19.3643   10.5307   24.4422 H   0  0  0  0  0  0  0  0  0  0  0  0
  -18.7232   11.5569   22.4841 H   0  0  0  0  0  0  0  0  0  0  0  0
  -17.4344   12.5104   23.2435 H   0  0  0  0  0  0  0  0  0  0  0  0
  -15.3173   11.8515   22.6352 H   0  0  0  0  0  0  0  0  0  0  0  0
  -16.2750   11.6540   21.1283 H   0  0  0  0  0  0  0  0  0  0  0  0
  -15.2093   10.3528   21.6898 H   0  0  0  0  0  0  0  0  0  0  0  0
  -19.9941   13.3603   28.0563 H   0  0  0  0  0  0  0  0  0  0  0  0
  1 10  1  0  0  0  0
  2  4  1  0  0  0  0
  3  7  1  0  0  0  0
  1  4  2  0  0  0  0
  4 11  1  0  0  0  0
  2  5  1  0  0  0  0
  2  6  1  0  0  0  0
  6 12  1  0  0  0  0
  6 13  1  0  0  0  0
  6  7  1  0  0  0  0
  7 14  1  0  0  0  0
  7 15  1  0  0  0  0
  3  8  1  0  0  0  0
  8 16  1  0  0  0  0
  8 17  1  0  0  0  0
  8 18  1  0  0  0  0
  1  9  1  0  0  0  0
  5  9  2  0  0  0  0
  9 19  1  0  0  0  0
M  END
$$$$
