[00]F741
  PyMOL2.3          3D                             0

 25 27  0  0  0  0  0  0  0  0999 V2000
  -21.1511   13.7382   28.8579 C   0  0  0  0  0  0  0  0  0  0  0  0
  -22.2417   13.0443   28.3480 N   0  0  0  0  0  0  0  0  0  0  0  0
  -21.1472   14.4038   29.8882 O   0  0  0  0  0  0  0  0  0  0  0  0
  -23.5773   13.1566   28.8696 C   0  0  0  0  0  0  0  0  0  0  0  0
  -17.8047   13.8507   27.3216 N   0  0  0  0  0  0  0  0  0  0  0  0
  -24.6872   13.8994   28.1743 C   0  0  0  0  0  0  0  0  0  0  0  0
  -18.4828   13.0274   26.4845 N   0  0  0  0  0  0  0  0  0  0  0  0
  -24.0381   14.5017   29.3795 C   0  0  0  0  0  0  0  0  0  0  0  0
  -20.6698   12.0794   26.1604 N   0  0  0  0  0  0  0  0  0  0  0  0
  -19.9655   13.6234   28.0317 C   0  0  0  0  0  0  0  0  0  0  0  0
  -18.6962   14.1922   28.2473 C   0  0  0  0  0  0  0  0  0  0  0  0
  -17.9797   12.3729   25.3652 C   0  0  0  0  0  0  0  0  0  0  0  0
  -18.7657   11.5827   24.6309 C   0  0  0  0  0  0  0  0  0  0  0  0
  -20.1632   11.4836   25.1213 C   0  0  0  0  0  0  0  0  0  0  0  0
  -19.8171   12.8760   26.8751 C   0  0  0  0  0  0  0  0  0  0  0  0
  -22.1659   12.6158   27.4284 H   0  0  0  0  0  0  0  0  0  0  0  0
  -23.8619   12.2935   29.4664 H   0  0  0  0  0  0  0  0  0  0  0  0
  -25.6993   13.5322   28.2960 H   0  0  0  0  0  0  0  0  0  0  0  0
  -24.4895   14.3593   27.2151 H   0  0  0  0  0  0  0  0  0  0  0  0
  -24.6309   14.5466   30.2837 H   0  0  0  0  0  0  0  0  0  0  0  0
  -23.3852   15.3532   29.2269 H   0  0  0  0  0  0  0  0  0  0  0  0
  -18.3845   14.8434   29.0514 H   0  0  0  0  0  0  0  0  0  0  0  0
  -16.9361   12.5305   25.1238 H   0  0  0  0  0  0  0  0  0  0  0  0
  -18.4329   11.0508   23.7516 H   0  0  0  0  0  0  0  0  0  0  0  0
  -20.8101   10.8250   24.5171 H   0  0  0  0  0  0  0  0  0  0  0  0
  1  3  2  0  0  0  0
  1  2  1  0  0  0  0
  2 16  1  0  0  0  0
  2  4  1  0  0  0  0
  4 17  1  0  0  0  0
  5 11  2  0  0  0  0
  4  6  1  0  0  0  0
  6 18  1  0  0  0  0
  6 19  1  0  0  0  0
  5  7  1  0  0  0  0
  4  8  1  0  0  0  0
  6  8  1  0  0  0  0
  8 20  1  0  0  0  0
  8 21  1  0  0  0  0
  9 14  2  0  0  0  0
  1 10  1  0  0  0  0
 10 11  1  0  0  0  0
 11 22  1  0  0  0  0
  7 12  1  0  0  0  0
 12 23  1  0  0  0  0
 12 13  2  0  0  0  0
 13 24  1  0  0  0  0
 13 14  1  0  0  0  0
 14 25  1  0  0  0  0
  7 15  1  0  0  0  0
  9 15  1  0  0  0  0
 10 15  2  0  0  0  0
M  END
$$$$
