[47]F362
  PyMOL2.3          3D                             0

 30 31  0  0  0  0  0  0  0  0999 V2000
  -17.7596   11.8973   23.5790 C   0  0  0  0  0  0  0  0  0  0  0  0
  -19.0873   12.7010   25.5299 N   0  0  0  0  0  0  0  0  0  0  0  0
  -17.8195   12.0808   25.0874 C   0  0  0  0  0  0  0  0  0  0  0  0
  -19.4121   15.6191   28.6261 N   0  0  0  0  0  0  0  0  0  0  0  0
  -20.2734   11.8660   25.2609 C   0  0  0  0  0  0  0  0  0  0  0  0
  -21.5309   14.5148   29.0187 N   0  0  0  0  0  0  0  0  0  0  0  0
  -19.8647   10.4011   25.1446 C   0  0  0  0  0  0  0  0  0  0  0  0
  -21.4207   13.0426   27.2907 N   0  0  0  0  0  0  0  0  0  0  0  0
  -19.1171   13.6767   26.5438 C   0  0  0  0  0  0  0  0  0  0  0  0
  -20.2771   13.7760   27.3403 N   0  0  0  0  0  0  0  0  0  0  0  0
  -18.1118   14.5315   26.8144 C   0  0  0  0  0  0  0  0  0  0  0  0
  -18.3538   15.5517   27.8761 C   0  0  0  0  0  0  0  0  0  0  0  0
  -17.2855   16.5993   28.0708 C   0  0  0  0  0  0  0  0  0  0  0  0
  -20.3887   14.7009   28.3876 C   0  0  0  0  0  0  0  0  0  0  0  0
  -22.1111   13.5049   28.3262 C   0  0  0  0  0  0  0  0  0  0  0  0
  -18.6808   11.4531   23.1902 H   0  0  0  0  0  0  0  0  0  0  0  0
  -16.9299   11.2306   23.3207 H   0  0  0  0  0  0  0  0  0  0  0  0
  -17.5804   12.8447   23.0620 H   0  0  0  0  0  0  0  0  0  0  0  0
  -17.7052   11.0912   25.5477 H   0  0  0  0  0  0  0  0  0  0  0  0
  -16.9710   12.6833   25.4351 H   0  0  0  0  0  0  0  0  0  0  0  0
  -20.7858   12.1833   24.3443 H   0  0  0  0  0  0  0  0  0  0  0  0
  -21.0064   11.9820   26.0686 H   0  0  0  0  0  0  0  0  0  0  0  0
  -18.8440   10.2823   24.7656 H   0  0  0  0  0  0  0  0  0  0  0  0
  -19.9185    9.9053   26.1192 H   0  0  0  0  0  0  0  0  0  0  0  0
  -20.5356    9.8719   24.4603 H   0  0  0  0  0  0  0  0  0  0  0  0
  -17.1737   14.5468   26.2756 H   0  0  0  0  0  0  0  0  0  0  0  0
  -16.5098   16.5273   27.3038 H   0  0  0  0  0  0  0  0  0  0  0  0
  -17.7389   17.5935   28.0074 H   0  0  0  0  0  0  0  0  0  0  0  0
  -16.8264   16.4734   29.0548 H   0  0  0  0  0  0  0  0  0  0  0  0
  -23.0748   13.0879   28.5779 H   0  0  0  0  0  0  0  0  0  0  0  0
  1 16  1  0  0  0  0
  1 17  1  0  0  0  0
  1 18  1  0  0  0  0
  2  3  1  0  0  0  0
  1  3  1  0  0  0  0
  3 19  1  0  0  0  0
  3 20  1  0  0  0  0
  4 12  2  0  0  0  0
  2  5  1  0  0  0  0
  5 21  1  0  0  0  0
  5 22  1  0  0  0  0
  6 14  2  0  0  0  0
  5  7  1  0  0  0  0
  7 23  1  0  0  0  0
  7 24  1  0  0  0  0
  7 25  1  0  0  0  0
  8 15  2  0  0  0  0
  2  9  1  0  0  0  0
  8 10  1  0  0  0  0
  9 10  1  0  0  0  0
 10 14  1  0  0  0  0
  9 11  2  0  0  0  0
 11 26  1  0  0  0  0
 11 12  1  0  0  0  0
 12 13  1  0  0  0  0
 13 27  1  0  0  0  0
 13 28  1  0  0  0  0
 13 29  1  0  0  0  0
  4 14  1  0  0  0  0
  6 15  1  0  0  0  0
 15 30  1  0  0  0  0
M  END
$$$$
