[00]16640642
  PyMOL2.3          3D                             0

 16 16  0  0  0  0  0  0  0  0999 V2000
  -18.6050   11.2331   24.1870 C   0  0  0  0  0  0  0  0  0  0  0  0
  -18.7404   12.3351   25.1361 N   0  0  0  0  0  0  0  0  0  0  0  0
  -17.5379   10.8000   22.0486 O   0  0  0  0  0  0  0  0  0  0  0  0
  -17.3672   11.4424   23.2935 C   0  0  0  0  0  0  0  0  0  0  0  0
  -19.1255   12.0901   26.3979 N   0  0  0  0  0  0  0  0  0  0  0  0
  -18.5520   13.6734   24.8995 C   0  0  0  0  0  0  0  0  0  0  0  0
  -18.8230   14.3128   26.0953 C   0  0  0  0  0  0  0  0  0  0  0  0
  -19.1677   13.2733   26.9676 C   0  0  0  0  0  0  0  0  0  0  0  0
  -18.7484   16.1768   26.4676 Br  0  0  0  0  0  0  0  0  0  0  0  0
  -18.5147   10.3174   24.7738 H   0  0  0  0  0  0  0  0  0  0  0  0
  -19.5233   11.2177   23.5973 H   0  0  0  0  0  0  0  0  0  0  0  0
  -16.4710   11.0666   23.7893 H   0  0  0  0  0  0  0  0  0  0  0  0
  -17.1676   12.5043   23.1444 H   0  0  0  0  0  0  0  0  0  0  0  0
  -18.2506   14.0385   23.9288 H   0  0  0  0  0  0  0  0  0  0  0  0
  -19.4479   13.3888   28.0044 H   0  0  0  0  0  0  0  0  0  0  0  0
  -16.7570   10.9590   21.5128 H   0  0  0  0  0  0  0  0  0  0  0  0
  1  4  1  0  0  0  0
  1 10  1  0  0  0  0
  1 11  1  0  0  0  0
  1  2  1  0  0  0  0
  2  5  4  0  0  0  0
  2  6  4  0  0  0  0
  3  4  1  0  0  0  0
  3 16  1  0  0  0  0
  4 12  1  0  0  0  0
  4 13  1  0  0  0  0
  5  8  4  0  0  0  0
  6  7  4  0  0  0  0
  6 14  1  0  0  0  0
  7  8  4  0  0  0  0
  8 15  1  0  0  0  0
  7  9  1  0  0  0  0
M  END
$$$$
