[64]F275
  PyMOL2.3          3D                             0

 20 20  0  0  0  0  0  0  0  0999 V2000
  -18.4819   15.4400   26.4125 C   0  0  0  0  0  0  0  0  0  0  0  0
  -23.3030   13.2105   27.3382 N   0  0  0  0  0  0  0  0  0  0  0  0
  -21.8336   12.1626   29.1569 O   0  0  0  0  0  0  0  0  0  0  0  0
  -22.1758   11.9959   27.7569 S   0  0  0  0  0  0  0  0  0  0  0  0
  -19.0512   14.0621   26.2600 C   0  0  0  0  0  0  0  0  0  0  0  0
  -22.6414   10.7241   27.2410 O   0  0  0  0  0  0  0  0  0  0  0  0
  -18.4448   13.1295   25.4116 C   0  0  0  0  0  0  0  0  0  0  0  0
  -18.9763   11.8471   25.2972 C   0  0  0  0  0  0  0  0  0  0  0  0
  -20.1099   11.4670   26.0081 C   0  0  0  0  0  0  0  0  0  0  0  0
  -20.7300   12.4042   26.8291 C   0  0  0  0  0  0  0  0  0  0  0  0
  -20.2029   13.6933   26.9694 C   0  0  0  0  0  0  0  0  0  0  0  0
  -18.3823   10.9607   24.4863 F   0  0  0  0  0  0  0  0  0  0  0  0
  -18.3050   15.6633   27.4693 H   0  0  0  0  0  0  0  0  0  0  0  0
  -19.1760   16.1819   26.0065 H   0  0  0  0  0  0  0  0  0  0  0  0
  -17.5271   15.5431   25.8842 H   0  0  0  0  0  0  0  0  0  0  0  0
  -17.5580   13.3918   24.8414 H   0  0  0  0  0  0  0  0  0  0  0  0
  -20.4769   10.4527   25.9037 H   0  0  0  0  0  0  0  0  0  0  0  0
  -20.6776   14.4143   27.6312 H   0  0  0  0  0  0  0  0  0  0  0  0
  -24.2053   13.1934   27.8313 H   0  0  0  0  0  0  0  0  0  0  0  0
  -22.9472   14.1678   27.2161 H   0  0  0  0  0  0  0  0  0  0  0  0
  1 13  1  0  0  0  0
  1 14  1  0  0  0  0
  1 15  1  0  0  0  0
  2  4  1  0  0  0  0
  2 19  1  0  0  0  0
  2 20  1  0  0  0  0
  3  4  2  0  0  0  0
  4 10  1  0  0  0  0
  1  5  1  0  0  0  0
  4  6  2  0  0  0  0
  5  7  1  0  0  0  0
  7 16  1  0  0  0  0
  7  8  2  0  0  0  0
  8  9  1  0  0  0  0
  9 17  1  0  0  0  0
  9 10  2  0  0  0  0
  5 11  2  0  0  0  0
 10 11  1  0  0  0  0
 11 18  1  0  0  0  0
  8 12  1  0  0  0  0
M  END
$$$$
