[43]F95
  PyMOL2.3          3D                             0

 27 27  0  0  0  0  0  0  0  0999 V2000
  -14.7922   14.0255   22.3633 C   0  0  0  0  0  0  0  0  0  0  0  0
  -16.6838   13.4652   23.7366 N   0  0  0  0  0  0  0  0  0  0  0  0
  -15.4324   11.7586   22.7796 O   0  0  0  0  0  0  0  0  0  0  0  0
  -20.8163   15.2360   28.7493 S   0  0  0  0  0  0  0  0  0  0  0  0
  -15.6536   12.9520   22.9695 C   0  0  0  0  0  0  0  0  0  0  0  0
  -22.3727   15.4829   28.0755 N   0  0  0  0  0  0  0  0  0  0  0  0
  -20.9375   14.2644   29.8188 O   0  0  0  0  0  0  0  0  0  0  0  0
  -17.8059   12.6475   24.1624 C   0  0  0  0  0  0  0  0  0  0  0  0
  -20.1792   16.5200   28.9655 O   0  0  0  0  0  0  0  0  0  0  0  0
  -18.5742   13.2625   25.3014 C   0  0  0  0  0  0  0  0  0  0  0  0
  -18.4831   12.7374   26.6005 C   0  0  0  0  0  0  0  0  0  0  0  0
  -19.1767   13.3247   27.6603 C   0  0  0  0  0  0  0  0  0  0  0  0
  -19.9406   14.4654   27.4235 C   0  0  0  0  0  0  0  0  0  0  0  0
  -20.0534   14.9977   26.1400 C   0  0  0  0  0  0  0  0  0  0  0  0
  -19.3641   14.3996   25.0845 C   0  0  0  0  0  0  0  0  0  0  0  0
  -14.0014   14.2881   23.0708 H   0  0  0  0  0  0  0  0  0  0  0  0
  -14.3376   13.6439   21.4444 H   0  0  0  0  0  0  0  0  0  0  0  0
  -15.3812   14.9141   22.1190 H   0  0  0  0  0  0  0  0  0  0  0  0
  -16.5610   14.3710   24.1790 H   0  0  0  0  0  0  0  0  0  0  0  0
  -17.3997   11.6694   24.4429 H   0  0  0  0  0  0  0  0  0  0  0  0
  -18.4869   12.5070   23.3162 H   0  0  0  0  0  0  0  0  0  0  0  0
  -17.8680   11.8623   26.7961 H   0  0  0  0  0  0  0  0  0  0  0  0
  -19.0996   12.8822   28.6492 H   0  0  0  0  0  0  0  0  0  0  0  0
  -20.6619   15.8746   25.9413 H   0  0  0  0  0  0  0  0  0  0  0  0
  -19.4450   14.8352   24.0916 H   0  0  0  0  0  0  0  0  0  0  0  0
  -22.9064   16.2931   28.4193 H   0  0  0  0  0  0  0  0  0  0  0  0
  -22.9678   14.6499   27.9782 H   0  0  0  0  0  0  0  0  0  0  0  0
  1 16  1  0  0  0  0
  1 17  1  0  0  0  0
  1 18  1  0  0  0  0
  2  5  1  0  0  0  0
  2 19  1  0  0  0  0
  3  5  2  0  0  0  0
  4 13  1  0  0  0  0
  1  5  1  0  0  0  0
  4  6  1  0  0  0  0
  6 26  1  0  0  0  0
  6 27  1  0  0  0  0
  4  7  2  0  0  0  0
  2  8  1  0  0  0  0
  8 20  1  0  0  0  0
  8 21  1  0  0  0  0
  4  9  2  0  0  0  0
  8 10  1  0  0  0  0
 10 11  1  0  0  0  0
 11 22  1  0  0  0  0
 11 12  2  0  0  0  0
 12 23  1  0  0  0  0
 12 13  1  0  0  0  0
 13 14  2  0  0  0  0
 14 24  1  0  0  0  0
 10 15  2  0  0  0  0
 14 15  1  0  0  0  0
 15 25  1  0  0  0  0
M  END
$$$$
