[11]F579
  PyMOL2.3          3D                             0

 29 31  0  0  0  0  0  0  0  0999 V2000
  -24.1659   15.5440   28.9912 C   0  0  0  0  0  0  0  0  0  0  0  0
  -18.6313   15.2077   25.8005 N   0  0  0  0  0  0  0  0  0  0  0  0
  -23.3837   14.4387   28.5306 O   0  0  0  0  0  0  0  0  0  0  0  0
  -19.3229   12.7349   25.7213 S   0  0  0  0  0  0  0  0  0  0  0  0
  -22.1594   14.6835   27.9625 C   0  0  0  0  0  0  0  0  0  0  0  0
  -17.4046   13.8264   24.2732 N   0  0  0  0  0  0  0  0  0  0  0  0
  -17.6811   11.4976   24.2929 O   0  0  0  0  0  0  0  0  0  0  0  0
  -21.6409   15.9644   27.8064 C   0  0  0  0  0  0  0  0  0  0  0  0
  -20.4147   16.1697   27.1821 C   0  0  0  0  0  0  0  0  0  0  0  0
  -19.7614   15.0919   26.5689 C   0  0  0  0  0  0  0  0  0  0  0  0
  -18.3711   14.0618   25.2280 C   0  0  0  0  0  0  0  0  0  0  0  0
  -17.0696   12.5107   23.9709 C   0  0  0  0  0  0  0  0  0  0  0  0
  -15.8828   12.3904   23.0933 C   0  0  0  0  0  0  0  0  0  0  0  0
  -15.9934   11.8486   21.6949 C   0  0  0  0  0  0  0  0  0  0  0  0
  -15.7528   13.3122   21.9043 C   0  0  0  0  0  0  0  0  0  0  0  0
  -20.3064   13.8105   26.6630 C   0  0  0  0  0  0  0  0  0  0  0  0
  -21.4866   13.5777   27.3996 C   0  0  0  0  0  0  0  0  0  0  0  0
  -24.1618   15.5743   30.0845 H   0  0  0  0  0  0  0  0  0  0  0  0
  -25.1978   15.3644   28.6757 H   0  0  0  0  0  0  0  0  0  0  0  0
  -23.8886   16.5349   28.6205 H   0  0  0  0  0  0  0  0  0  0  0  0
  -22.1800   16.8474   28.1272 H   0  0  0  0  0  0  0  0  0  0  0  0
  -20.0038   17.1712   27.0945 H   0  0  0  0  0  0  0  0  0  0  0  0
  -16.8077   14.6013   23.9988 H   0  0  0  0  0  0  0  0  0  0  0  0
  -14.9660   12.1661   23.6283 H   0  0  0  0  0  0  0  0  0  0  0  0
  -15.1654   11.2614   21.3168 H   0  0  0  0  0  0  0  0  0  0  0  0
  -16.9646   11.5475   21.3237 H   0  0  0  0  0  0  0  0  0  0  0  0
  -14.7672   13.7090   21.6950 H   0  0  0  0  0  0  0  0  0  0  0  0
  -16.5670   13.9841   21.6586 H   0  0  0  0  0  0  0  0  0  0  0  0
  -21.9121   12.5791   27.4512 H   0  0  0  0  0  0  0  0  0  0  0  0
  1 18  1  0  0  0  0
  1 19  1  0  0  0  0
  1 20  1  0  0  0  0
  2 10  1  0  0  0  0
  1  3  1  0  0  0  0
  4 11  1  0  0  0  0
  3  5  1  0  0  0  0
  6 11  1  0  0  0  0
  6 23  1  0  0  0  0
  7 12  2  0  0  0  0
  5  8  1  0  0  0  0
  8 21  1  0  0  0  0
  8  9  2  0  0  0  0
  9 22  1  0  0  0  0
  9 10  1  0  0  0  0
  2 11  2  0  0  0  0
  6 12  1  0  0  0  0
 12 13  1  0  0  0  0
 13 24  1  0  0  0  0
 13 14  1  0  0  0  0
 14 25  1  0  0  0  0
 14 26  1  0  0  0  0
 13 15  1  0  0  0  0
 14 15  1  0  0  0  0
 15 27  1  0  0  0  0
 15 28  1  0  0  0  0
  4 16  1  0  0  0  0
 10 16  2  0  0  0  0
  5 17  2  0  0  0  0
 16 17  1  0  0  0  0
 17 29  1  0  0  0  0
M  END
$$$$
