[62]F367
  PyMOL2.3          3D                             0

 31 32  0  0  0  0  0  0  0  0999 V2000
  -15.1263   13.0327   22.3515 C   0  0  0  0  0  0  0  0  0  0  0  0
  -17.2024   12.1817   23.4177 N   0  0  0  0  0  0  0  0  0  0  0  0
  -19.0725   13.4027   27.3787 O   0  0  0  0  0  0  0  0  0  0  0  0
  -16.1870   11.9459   22.4114 C   0  0  0  0  0  0  0  0  0  0  0  0
  -20.8385   12.6173   26.0776 N   0  0  0  0  0  0  0  0  0  0  0  0
  -18.1611   11.3005   23.8320 C   0  0  0  0  0  0  0  0  0  0  0  0
  -21.6362   15.8955   29.5331 N   0  0  0  0  0  0  0  0  0  0  0  0
  -18.9538   11.9809   24.7349 C   0  0  0  0  0  0  0  0  0  0  0  0
  -17.3146   13.4001   23.9788 N   0  0  0  0  0  0  0  0  0  0  0  0
  -20.1448   11.4900   25.4738 C   0  0  0  0  0  0  0  0  0  0  0  0
  -20.2685   13.3512   27.1106 C   0  0  0  0  0  0  0  0  0  0  0  0
  -21.2220   14.1439   27.9177 C   0  0  0  0  0  0  0  0  0  0  0  0
  -22.5857   13.8560   27.8663 C   0  0  0  0  0  0  0  0  0  0  0  0
  -23.4704   14.5900   28.6510 C   0  0  0  0  0  0  0  0  0  0  0  0
  -22.9519   15.5958   29.4509 C   0  0  0  0  0  0  0  0  0  0  0  0
  -20.7982   15.1538   28.7725 C   0  0  0  0  0  0  0  0  0  0  0  0
  -18.3830   13.2754   24.7698 C   0  0  0  0  0  0  0  0  0  0  0  0
  -14.5789   12.9700   21.4051 H   0  0  0  0  0  0  0  0  0  0  0  0
  -14.3993   12.9145   23.1618 H   0  0  0  0  0  0  0  0  0  0  0  0
  -15.5643   14.0338   22.4180 H   0  0  0  0  0  0  0  0  0  0  0  0
  -16.6853   11.8593   21.4388 H   0  0  0  0  0  0  0  0  0  0  0  0
  -15.7327   10.9764   22.6429 H   0  0  0  0  0  0  0  0  0  0  0  0
  -18.2033   10.2860   23.4600 H   0  0  0  0  0  0  0  0  0  0  0  0
  -20.8516   10.9940   24.8003 H   0  0  0  0  0  0  0  0  0  0  0  0
  -19.8388   10.7794   26.2489 H   0  0  0  0  0  0  0  0  0  0  0  0
  -21.8524   12.5734   26.0358 H   0  0  0  0  0  0  0  0  0  0  0  0
  -22.9702   13.0586   27.2365 H   0  0  0  0  0  0  0  0  0  0  0  0
  -24.5341   14.3799   28.6397 H   0  0  0  0  0  0  0  0  0  0  0  0
  -23.6032   16.2047   30.0698 H   0  0  0  0  0  0  0  0  0  0  0  0
  -19.7504   15.4162   28.8775 H   0  0  0  0  0  0  0  0  0  0  0  0
  -18.7090   14.1349   25.3384 H   0  0  0  0  0  0  0  0  0  0  0  0
  1 18  1  0  0  0  0
  1 19  1  0  0  0  0
  1 20  1  0  0  0  0
  2  4  1  0  0  0  0
  3 11  2  0  0  0  0
  1  4  1  0  0  0  0
  4 21  1  0  0  0  0
  4 22  1  0  0  0  0
  5 10  1  0  0  0  0
  5 26  1  0  0  0  0
  2  6  1  0  0  0  0
  6 23  1  0  0  0  0
  7 15  2  0  0  0  0
  6  8  2  0  0  0  0
  2  9  1  0  0  0  0
  9 17  2  0  0  0  0
  8 10  1  0  0  0  0
 10 24  1  0  0  0  0
 10 25  1  0  0  0  0
  5 11  1  0  0  0  0
 11 12  1  0  0  0  0
 12 13  1  0  0  0  0
 13 27  1  0  0  0  0
 13 14  2  0  0  0  0
 14 28  1  0  0  0  0
 14 15  1  0  0  0  0
 15 29  1  0  0  0  0
  7 16  1  0  0  0  0
 12 16  2  0  0  0  0
 16 30  1  0  0  0  0
  8 17  1  0  0  0  0
 17 31  1  0  0  0  0
M  END
$$$$
