[21]F366
  PyMOL2.3          3D                             0

 22 22  0  0  0  0  0  0  0  0999 V2000
  -17.7025   16.2274   26.7122 C   0  0  0  0  0  0  0  0  0  0  0  0
  -18.8811   14.1556   26.0969 N   0  0  0  0  0  0  0  0  0  0  0  0
  -17.3181   10.4958   22.0924 O   0  0  0  0  0  0  0  0  0  0  0  0
  -19.0156   15.5809   26.3094 C   0  0  0  0  0  0  0  0  0  0  0  0
  -19.2206   13.2984   27.0775 N   0  0  0  0  0  0  0  0  0  0  0  0
  -18.4296   13.5443   24.9632 C   0  0  0  0  0  0  0  0  0  0  0  0
  -18.4745   12.1895   25.2139 C   0  0  0  0  0  0  0  0  0  0  0  0
  -18.0906   11.0758   24.3071 C   0  0  0  0  0  0  0  0  0  0  0  0
  -17.4222   11.5621   23.0264 C   0  0  0  0  0  0  0  0  0  0  0  0
  -18.9739   12.1039   26.5345 C   0  0  0  0  0  0  0  0  0  0  0  0
  -17.2492   15.7171   27.5685 H   0  0  0  0  0  0  0  0  0  0  0  0
  -17.8715   17.2711   26.9961 H   0  0  0  0  0  0  0  0  0  0  0  0
  -16.9875   16.2175   25.8830 H   0  0  0  0  0  0  0  0  0  0  0  0
  -19.3933   16.0195   25.3792 H   0  0  0  0  0  0  0  0  0  0  0  0
  -19.7749   15.7352   27.0840 H   0  0  0  0  0  0  0  0  0  0  0  0
  -18.1195   14.1067   24.0928 H   0  0  0  0  0  0  0  0  0  0  0  0
  -18.9749   10.4740   24.0628 H   0  0  0  0  0  0  0  0  0  0  0  0
  -17.4026   10.4049   24.8359 H   0  0  0  0  0  0  0  0  0  0  0  0
  -16.4145   11.9323   23.2421 H   0  0  0  0  0  0  0  0  0  0  0  0
  -17.9827   12.3776   22.5570 H   0  0  0  0  0  0  0  0  0  0  0  0
  -16.6723    9.8613   22.4476 H   0  0  0  0  0  0  0  0  0  0  0  0
  -19.1653   11.2164   27.1209 H   0  0  0  0  0  0  0  0  0  0  0  0
  1 11  1  0  0  0  0
  1 12  1  0  0  0  0
  1 13  1  0  0  0  0
  2  4  1  0  0  0  0
  3  9  1  0  0  0  0
  3 21  1  0  0  0  0
  1  4  1  0  0  0  0
  4 14  1  0  0  0  0
  4 15  1  0  0  0  0
  2  5  1  0  0  0  0
  5 10  2  0  0  0  0
  2  6  1  0  0  0  0
  6 16  1  0  0  0  0
  6  7  2  0  0  0  0
  7  8  1  0  0  0  0
  8 17  1  0  0  0  0
  8 18  1  0  0  0  0
  8  9  1  0  0  0  0
  9 19  1  0  0  0  0
  9 20  1  0  0  0  0
  7 10  1  0  0  0  0
 10 22  1  0  0  0  0
M  END
$$$$
