F529_87
     RDKit          3D

 23 23  0  0  0  0  0  0  0  0999 V2000
  -18.7328   13.5320   23.7356 S   0  0  0  0  0  0  0  0  0  0  0  0
  -19.3645   12.5139   22.9116 O   0  0  0  0  0  0  0  0  0  0  0  0
  -18.7180   14.9201   23.3152 O   0  0  0  0  0  0  0  0  0  0  0  0
  -17.0590   13.0228   24.0273 C   0  0  0  0  0  0  0  0  0  0  0  0
  -17.0612   12.0155   24.4489 H   0  0  0  0  0  0  0  0  0  0  0  0
  -16.5818   13.7282   24.7103 H   0  0  0  0  0  0  0  0  0  0  0  0
  -16.5334   13.0226   23.0706 H   0  0  0  0  0  0  0  0  0  0  0  0
  -19.4623   13.4688   25.3480 C   0  0  0  0  0  0  0  0  0  0  0  0
  -19.5553   14.5930   26.1868 C   0  0  0  0  0  0  0  0  0  0  0  0
  -19.0447   15.8159   25.7588 N   0  0  0  0  0  0  0  0  0  0  0  0
  -18.7014   15.8638   24.7886 H   0  0  0  0  0  0  0  0  0  0  0  0
  -18.9286   17.0062   26.5662 C   0  0  0  0  0  0  0  0  0  0  0  0
  -19.9045   17.3184   26.9530 H   0  0  0  0  0  0  0  0  0  0  0  0
  -18.5356   17.8248   25.9550 H   0  0  0  0  0  0  0  0  0  0  0  0
  -18.2367   16.8526   27.3999 H   0  0  0  0  0  0  0  0  0  0  0  0
  -20.1837   14.4894   27.4349 C   0  0  0  0  0  0  0  0  0  0  0  0
  -20.2836   15.3369   28.0595 H   0  0  0  0  0  0  0  0  0  0  0  0
  -20.6828   13.2666   27.8633 C   0  0  0  0  0  0  0  0  0  0  0  0
  -21.1503   13.1875   28.8113 H   0  0  0  0  0  0  0  0  0  0  0  0
  -20.5681   12.1424   27.0523 C   0  0  0  0  0  0  0  0  0  0  0  0
  -20.9433   11.2073   27.3850 H   0  0  0  0  0  0  0  0  0  0  0  0
  -19.9644   12.2468   25.8027 C   0  0  0  0  0  0  0  0  0  0  0  0
  -19.8848   11.3868   25.1872 H   0  0  0  0  0  0  0  0  0  0  0  0
  1  2  2  0
  1  3  2  0
  1  4  1  0
  1  8  1  0
  4  5  1  0
  4  6  1  0
  4  7  1  0
  8  9  1  0
  8 22  2  0
  9 10  1  0
  9 16  2  0
 10 11  1  0
 10 12  1  0
 12 13  1  0
 12 14  1  0
 12 15  1  0
 16 17  1  0
 16 18  1  0
 18 19  1  0
 18 20  2  0
 20 21  1  0
 20 22  1  0
 22 23  1  0
M  END
$$$$
