F367_67
     RDKit          3D

 31 32  0  0  0  0  0  0  0  0999 V2000
  -25.1567   17.6126   29.3408 O   0  0  0  0  0  0  0  0  0  0  0  0
  -24.3523   16.6920   29.4025 C   0  0  0  0  0  0  0  0  0  0  0  0
  -23.2709   16.8739   30.2117 N   0  0  0  0  0  0  0  0  0  0  0  0
  -22.6129   16.1035   30.3790 H   0  0  0  0  0  0  0  0  0  0  0  0
  -23.0212   18.1282   30.8928 C   0  0  0  0  0  0  0  0  0  0  0  0
  -22.5291   17.9132   31.8485 H   0  0  0  0  0  0  0  0  0  0  0  0
  -23.9825   18.6081   31.1089 H   0  0  0  0  0  0  0  0  0  0  0  0
  -22.1654   18.9884   30.0332 C   0  0  0  0  0  0  0  0  0  0  0  0
  -20.8173   19.1052   30.0781 C   0  0  0  0  0  0  0  0  0  0  0  0
  -20.0899   18.6395   30.6889 H   0  0  0  0  0  0  0  0  0  0  0  0
  -20.4913   20.0038   29.1223 N   0  0  0  0  0  0  0  0  0  0  0  0
  -19.1746   20.4851   28.7608 C   0  0  0  0  0  0  0  0  0  0  0  0
  -19.2882   21.4977   28.3583 H   0  0  0  0  0  0  0  0  0  0  0  0
  -18.5836   20.5539   29.6801 H   0  0  0  0  0  0  0  0  0  0  0  0
  -18.4926   19.5863   27.7453 C   0  0  0  0  0  0  0  0  0  0  0  0
  -19.0839   19.5115   26.8262 H   0  0  0  0  0  0  0  0  0  0  0  0
  -18.3603   18.5732   28.1393 H   0  0  0  0  0  0  0  0  0  0  0  0
  -17.5064   19.9839   27.4873 H   0  0  0  0  0  0  0  0  0  0  0  0
  -21.5895   20.4607   28.4691 N   0  0  0  0  0  0  0  0  0  0  0  0
  -22.5954   19.8449   29.0272 C   0  0  0  0  0  0  0  0  0  0  0  0
  -23.6025   19.9922   28.7285 H   0  0  0  0  0  0  0  0  0  0  0  0
  -24.5375   15.4147   28.6872 C   0  0  0  0  0  0  0  0  0  0  0  0
  -25.6098   15.3102   27.7921 C   0  0  0  0  0  0  0  0  0  0  0  0
  -26.2595   16.1385   27.6515 H   0  0  0  0  0  0  0  0  0  0  0  0
  -25.8582   14.1967   27.0998 N   0  0  0  0  0  0  0  0  0  0  0  0
  -25.0656   13.1370   27.2469 C   0  0  0  0  0  0  0  0  0  0  0  0
  -25.2890   12.2664   26.6828 H   0  0  0  0  0  0  0  0  0  0  0  0
  -23.9725   13.1578   28.1090 C   0  0  0  0  0  0  0  0  0  0  0  0
  -23.3568   12.3016   28.2009 H   0  0  0  0  0  0  0  0  0  0  0  0
  -23.6961   14.3057   28.8407 C   0  0  0  0  0  0  0  0  0  0  0  0
  -22.8605   14.3326   29.4904 H   0  0  0  0  0  0  0  0  0  0  0  0
  1  2  2  0
  2  3  1  0
  2 22  1  0
  3  4  1  0
  3  5  1  0
  5  6  1  0
  5  7  1  0
  5  8  1  0
  8  9  2  0
  8 20  1  0
  9 10  1  0
  9 11  1  0
 11 12  1  0
 11 19  1  0
 12 13  1  0
 12 14  1  0
 12 15  1  0
 15 16  1  0
 15 17  1  0
 15 18  1  0
 19 20  2  0
 20 21  1  0
 22 23  1  0
 22 30  2  0
 23 24  1  0
 23 25  2  0
 25 26  1  0
 26 27  1  0
 26 28  2  0
 28 29  1  0
 28 30  1  0
 30 31  1  0
M  END
$$$$
