F529_86
     RDKit          3D

 23 23  0  0  0  0  0  0  0  0999 V2000
  -18.6097   13.5419   23.6540 S   0  0  0  0  0  0  0  0  0  0  0  0
  -19.2384   12.5107   22.8441 O   0  0  0  0  0  0  0  0  0  0  0  0
  -18.6081   14.9258   23.2194 O   0  0  0  0  0  0  0  0  0  0  0  0
  -16.9303   13.0486   23.9406 C   0  0  0  0  0  0  0  0  0  0  0  0
  -16.9222   12.0457   24.3725 H   0  0  0  0  0  0  0  0  0  0  0  0
  -16.4546   13.7646   24.6136 H   0  0  0  0  0  0  0  0  0  0  0  0
  -16.4104   13.0427   22.9809 H   0  0  0  0  0  0  0  0  0  0  0  0
  -19.3291   13.4896   25.2713 C   0  0  0  0  0  0  0  0  0  0  0  0
  -19.3916   14.6128   26.1141 C   0  0  0  0  0  0  0  0  0  0  0  0
  -18.8575   15.8257   25.6862 N   0  0  0  0  0  0  0  0  0  0  0  0
  -18.4405   15.8449   24.7443 H   0  0  0  0  0  0  0  0  0  0  0  0
  -18.8120   17.0427   26.4599 C   0  0  0  0  0  0  0  0  0  0  0  0
  -19.8169   17.3585   26.7598 H   0  0  0  0  0  0  0  0  0  0  0  0
  -18.3783   17.8444   25.8539 H   0  0  0  0  0  0  0  0  0  0  0  0
  -18.1856   16.9229   27.3492 H   0  0  0  0  0  0  0  0  0  0  0  0
  -20.0134   14.5191   27.3663 C   0  0  0  0  0  0  0  0  0  0  0  0
  -20.0904   15.3665   27.9941 H   0  0  0  0  0  0  0  0  0  0  0  0
  -20.5361   13.3061   27.7945 C   0  0  0  0  0  0  0  0  0  0  0  0
  -20.9985   13.2342   28.7455 H   0  0  0  0  0  0  0  0  0  0  0  0
  -20.4516   12.1822   26.9793 C   0  0  0  0  0  0  0  0  0  0  0  0
  -20.8448   11.2544   27.3118 H   0  0  0  0  0  0  0  0  0  0  0  0
  -19.8545   12.2774   25.7258 C   0  0  0  0  0  0  0  0  0  0  0  0
  -19.7981   11.4178   25.1071 H   0  0  0  0  0  0  0  0  0  0  0  0
  1  2  2  0
  1  3  2  0
  1  4  1  0
  1  8  1  0
  4  5  1  0
  4  6  1  0
  4  7  1  0
  8  9  1  0
  8 22  2  0
  9 10  1  0
  9 16  2  0
 10 11  1  0
 10 12  1  0
 12 13  1  0
 12 14  1  0
 12 15  1  0
 16 17  1  0
 16 18  1  0
 18 19  1  0
 18 20  2  0
 20 21  1  0
 20 22  1  0
 22 23  1  0
M  END
$$$$
