F362_63
     RDKit          3D

 30 31  0  0  0  0  0  0  0  0999 V2000
  -19.6357   19.6299   27.8594 N   0  0  0  0  0  0  0  0  0  0  0  0
  -20.1643   20.6302   26.9120 C   0  0  0  0  0  0  0  0  0  0  0  0
  -21.1785   20.9415   27.1772 H   0  0  0  0  0  0  0  0  0  0  0  0
  -19.5749   21.5533   26.9803 H   0  0  0  0  0  0  0  0  0  0  0  0
  -20.0841   20.1198   25.4811 C   0  0  0  0  0  0  0  0  0  0  0  0
  -20.6190   19.1755   25.3488 H   0  0  0  0  0  0  0  0  0  0  0  0
  -19.0433   19.9493   25.1846 H   0  0  0  0  0  0  0  0  0  0  0  0
  -20.5133   20.8547   24.7922 H   0  0  0  0  0  0  0  0  0  0  0  0
  -20.4915   19.4479   29.0491 C   0  0  0  0  0  0  0  0  0  0  0  0
  -21.0506   20.3620   29.2763 H   0  0  0  0  0  0  0  0  0  0  0  0
  -21.2575   18.6866   28.8534 H   0  0  0  0  0  0  0  0  0  0  0  0
  -19.6639   19.0142   30.2509 C   0  0  0  0  0  0  0  0  0  0  0  0
  -18.9095   19.7625   30.5116 H   0  0  0  0  0  0  0  0  0  0  0  0
  -19.1426   18.0728   30.0508 H   0  0  0  0  0  0  0  0  0  0  0  0
  -20.3107   18.8666   31.1213 H   0  0  0  0  0  0  0  0  0  0  0  0
  -18.4121   18.8969   27.6611 C   0  0  0  0  0  0  0  0  0  0  0  0
  -18.4033   17.4771   27.4068 N   0  0  0  0  0  0  0  0  0  0  0  0
  -19.4316   16.6065   27.3037 N   0  0  0  0  0  0  0  0  0  0  0  0
  -18.8252   15.4838   27.0698 C   0  0  0  0  0  0  0  0  0  0  0  0
  -19.3569   14.5739   26.9341 H   0  0  0  0  0  0  0  0  0  0  0  0
  -17.4906   15.5404   27.0099 N   0  0  0  0  0  0  0  0  0  0  0  0
  -17.2251   16.7971   27.2210 C   0  0  0  0  0  0  0  0  0  0  0  0
  -15.9853   17.4119   27.2664 N   0  0  0  0  0  0  0  0  0  0  0  0
  -15.9433   18.6846   27.4916 C   0  0  0  0  0  0  0  0  0  0  0  0
  -14.6089   19.3765   27.5450 C   0  0  0  0  0  0  0  0  0  0  0  0
  -14.7183   20.4439   27.7500 H   0  0  0  0  0  0  0  0  0  0  0  0
  -14.0984   19.2501   26.5860 H   0  0  0  0  0  0  0  0  0  0  0  0
  -14.0003   18.9250   28.3344 H   0  0  0  0  0  0  0  0  0  0  0  0
  -17.1685   19.5001   27.7009 C   0  0  0  0  0  0  0  0  0  0  0  0
  -17.0806   20.5330   27.8908 H   0  0  0  0  0  0  0  0  0  0  0  0
  1  2  1  0
  1  9  1  0
  1 16  1  0
  2  3  1  0
  2  4  1  0
  2  5  1  0
  5  6  1  0
  5  7  1  0
  5  8  1  0
  9 10  1  0
  9 11  1  0
  9 12  1  0
 12 13  1  0
 12 14  1  0
 12 15  1  0
 16 17  1  0
 16 29  2  0
 17 18  1  0
 17 22  1  0
 18 19  2  0
 19 20  1  0
 19 21  1  0
 21 22  2  0
 22 23  1  0
 23 24  2  0
 24 25  1  0
 24 29  1  0
 25 26  1  0
 25 27  1  0
 25 28  1  0
 29 30  1  0
M  END
$$$$
