F584_41
     RDKit          3D

 27 28  0  0  0  0  0  0  0  0999 V2000
  -23.5416   12.0792   33.5892 O   0  0  0  0  0  0  0  0  0  0  0  0
  -22.4516   12.0556   34.5010 C   0  0  0  0  0  0  0  0  0  0  0  0
  -22.5181   11.1271   35.0771 H   0  0  0  0  0  0  0  0  0  0  0  0
  -22.5101   12.8897   35.2087 H   0  0  0  0  0  0  0  0  0  0  0  0
  -21.4930   12.0493   33.9718 H   0  0  0  0  0  0  0  0  0  0  0  0
  -23.6817   13.1727   32.7607 C   0  0  0  0  0  0  0  0  0  0  0  0
  -23.3554   12.9653   31.4128 C   0  0  0  0  0  0  0  0  0  0  0  0
  -23.4575   14.0596   30.5408 C   0  0  0  0  0  0  0  0  0  0  0  0
  -23.1365   14.0819   29.1625 N   0  0  0  0  0  0  0  0  0  0  0  0
  -23.3768   14.9505   28.6698 H   0  0  0  0  0  0  0  0  0  0  0  0
  -22.5522   13.1941   28.3153 C   0  0  0  0  0  0  0  0  0  0  0  0
  -22.4276   13.6248   27.1924 O   0  0  0  0  0  0  0  0  0  0  0  0
  -22.0373   11.8659   28.7486 C   0  0  0  0  0  0  0  0  0  0  0  0
  -21.8398   11.2829   27.8407 H   0  0  0  0  0  0  0  0  0  0  0  0
  -21.0819   11.9998   29.2678 H   0  0  0  0  0  0  0  0  0  0  0  0
  -23.0595   11.1386   29.5832 C   0  0  0  0  0  0  0  0  0  0  0  0
  -24.0782   11.2948   29.2063 H   0  0  0  0  0  0  0  0  0  0  0  0
  -22.8575   10.0627   29.5222 H   0  0  0  0  0  0  0  0  0  0  0  0
  -22.9525   11.5550   31.0376 C   0  0  0  0  0  0  0  0  0  0  0  0
  -21.9288   11.3858   31.3966 H   0  0  0  0  0  0  0  0  0  0  0  0
  -23.5989   10.8509   31.5780 H   0  0  0  0  0  0  0  0  0  0  0  0
  -23.8712   15.3116   31.0019 C   0  0  0  0  0  0  0  0  0  0  0  0
  -23.9429   16.1274   30.3296 H   0  0  0  0  0  0  0  0  0  0  0  0
  -24.1932   15.4914   32.3404 C   0  0  0  0  0  0  0  0  0  0  0  0
  -24.5094   16.4414   32.6874 H   0  0  0  0  0  0  0  0  0  0  0  0
  -24.1014   14.4230   33.2252 C   0  0  0  0  0  0  0  0  0  0  0  0
  -24.3488   14.5678   34.2431 H   0  0  0  0  0  0  0  0  0  0  0  0
  1  2  1  0
  1  6  1  0
  2  3  1  0
  2  4  1  0
  2  5  1  0
  6  7  1  0
  6 26  2  0
  7  8  2  0
  7 19  1  0
  8  9  1  0
  8 22  1  0
  9 10  1  0
  9 11  1  0
 11 12  2  0
 11 13  1  0
 13 14  1  0
 13 15  1  0
 13 16  1  0
 16 17  1  0
 16 18  1  0
 16 19  1  0
 19 20  1  0
 19 21  1  0
 22 23  1  0
 22 24  2  0
 24 25  1  0
 24 26  1  0
 26 27  1  0
M  END
$$$$
