F666_17
     RDKit          3D

 35 37  0  0  0  0  0  0  0  0999 V2000
  -19.9691   11.1859   24.7352 F   0  0  0  0  0  0  0  0  0  0  0  0
  -19.4591   12.3254   25.2237 C   0  0  0  0  0  0  0  0  0  0  0  0
  -18.5246   13.0214   24.4671 C   0  0  0  0  0  0  0  0  0  0  0  0
  -18.2261   12.6516   23.5209 H   0  0  0  0  0  0  0  0  0  0  0  0
  -17.9932   14.2038   24.9734 C   0  0  0  0  0  0  0  0  0  0  0  0
  -17.2837   14.7348   24.4014 H   0  0  0  0  0  0  0  0  0  0  0  0
  -18.3963   14.6705   26.2375 C   0  0  0  0  0  0  0  0  0  0  0  0
  -17.8562   15.8409   26.7557 N   0  0  0  0  0  0  0  0  0  0  0  0
  -18.6129   17.0998   26.8274 C   0  0  0  0  0  0  0  0  0  0  0  0
  -19.5979   17.0401   26.3536 H   0  0  0  0  0  0  0  0  0  0  0  0
  -18.7927   17.3263   27.8857 H   0  0  0  0  0  0  0  0  0  0  0  0
  -17.8055   18.2456   26.1969 C   0  0  0  0  0  0  0  0  0  0  0  0
  -18.3420   19.1886   26.3255 H   0  0  0  0  0  0  0  0  0  0  0  0
  -17.6930   18.0765   25.1197 H   0  0  0  0  0  0  0  0  0  0  0  0
  -16.4510   18.3112   26.7624 N   0  0  0  0  0  0  0  0  0  0  0  0
  -15.8877   19.4321   27.3254 C   0  0  0  0  0  0  0  0  0  0  0  0
  -14.7490   19.3648   27.7502 O   0  0  0  0  0  0  0  0  0  0  0  0
  -16.6706   20.6862   27.3971 C   0  0  0  0  0  0  0  0  0  0  0  0
  -16.7868   21.1892   26.4419 H   0  0  0  0  0  0  0  0  0  0  0  0
  -16.5313   21.5991   28.5949 C   0  0  0  0  0  0  0  0  0  0  0  0
  -15.8673   21.2970   29.3972 H   0  0  0  0  0  0  0  0  0  0  0  0
  -16.5587   22.6680   28.4219 H   0  0  0  0  0  0  0  0  0  0  0  0
  -17.7953   20.8195   28.3975 C   0  0  0  0  0  0  0  0  0  0  0  0
  -17.9871   19.9956   29.0762 H   0  0  0  0  0  0  0  0  0  0  0  0
  -18.6831   21.3605   28.0928 H   0  0  0  0  0  0  0  0  0  0  0  0
  -15.7058   17.0487   26.6782 C   0  0  0  0  0  0  0  0  0  0  0  0
  -15.5347   16.8538   25.6133 H   0  0  0  0  0  0  0  0  0  0  0  0
  -14.7254   17.1277   27.1585 H   0  0  0  0  0  0  0  0  0  0  0  0
  -16.4914   15.8835   27.3050 C   0  0  0  0  0  0  0  0  0  0  0  0
  -16.5524   16.0146   28.3917 H   0  0  0  0  0  0  0  0  0  0  0  0
  -15.9322   14.9617   27.1101 H   0  0  0  0  0  0  0  0  0  0  0  0
  -19.3588   13.9577   26.9711 C   0  0  0  0  0  0  0  0  0  0  0  0
  -19.7002   14.3285   27.9010 H   0  0  0  0  0  0  0  0  0  0  0  0
  -19.8874   12.7739   26.4653 C   0  0  0  0  0  0  0  0  0  0  0  0
  -20.6109   12.2251   27.0086 H   0  0  0  0  0  0  0  0  0  0  0  0
  1  2  1  0
  2  3  1  0
  2 34  2  0
  3  4  1  0
  3  5  2  0
  5  6  1  0
  5  7  1  0
  7  8  1  0
  7 32  2  0
  8  9  1  0
  8 29  1  0
  9 10  1  0
  9 11  1  0
  9 12  1  0
 12 13  1  0
 12 14  1  0
 12 15  1  0
 15 16  1  0
 15 26  1  0
 16 17  2  0
 16 18  1  0
 18 19  1  0
 18 20  1  0
 18 23  1  0
 20 21  1  0
 20 22  1  0
 20 23  1  0
 23 24  1  0
 23 25  1  0
 26 27  1  0
 26 28  1  0
 26 29  1  0
 29 30  1  0
 29 31  1  0
 32 33  1  0
 32 34  1  0
 34 35  1  0
M  END
$$$$
