F126_37
     RDKit          3D

 23 23  0  0  0  0  0  0  0  0999 V2000
  -22.6678   10.7668   27.8618 Cl  0  0  0  0  0  0  0  0  0  0  0  0
  -23.2911   12.1669   28.6468 C   0  0  0  0  0  0  0  0  0  0  0  0
  -24.2688   13.0023   28.0832 C   0  0  0  0  0  0  0  0  0  0  0  0
  -24.9018   12.8157   26.7607 C   0  0  0  0  0  0  0  0  0  0  0  0
  -25.3192   13.6628   25.9851 O   0  0  0  0  0  0  0  0  0  0  0  0
  -25.0632   11.5466   26.3091 N   0  0  0  0  0  0  0  0  0  0  0  0
  -25.5082   11.4070   25.3938 H   0  0  0  0  0  0  0  0  0  0  0  0
  -24.7511   10.7566   26.8880 H   0  0  0  0  0  0  0  0  0  0  0  0
  -24.6847   14.0785   28.7973 N   0  0  0  0  0  0  0  0  0  0  0  0
  -24.1787   14.3334   29.9941 C   0  0  0  0  0  0  0  0  0  0  0  0
  -24.6753   15.5425   30.7456 C   0  0  0  0  0  0  0  0  0  0  0  0
  -24.0199   15.7026   31.6111 H   0  0  0  0  0  0  0  0  0  0  0  0
  -24.6090   16.7937   29.8718 C   0  0  0  0  0  0  0  0  0  0  0  0
  -25.2635   16.7127   28.9957 H   0  0  0  0  0  0  0  0  0  0  0  0
  -23.5892   16.9643   29.5082 H   0  0  0  0  0  0  0  0  0  0  0  0
  -24.9162   17.6788   30.4388 H   0  0  0  0  0  0  0  0  0  0  0  0
  -26.0925   15.3130   31.2708 C   0  0  0  0  0  0  0  0  0  0  0  0
  -26.8094   15.1707   30.4545 H   0  0  0  0  0  0  0  0  0  0  0  0
  -26.4280   16.1696   31.8659 H   0  0  0  0  0  0  0  0  0  0  0  0
  -26.1348   14.4234   31.9084 H   0  0  0  0  0  0  0  0  0  0  0  0
  -23.2470   13.5526   30.5490 N   0  0  0  0  0  0  0  0  0  0  0  0
  -22.8004   12.4894   29.9066 C   0  0  0  0  0  0  0  0  0  0  0  0
  -22.0604   11.8826   30.3648 H   0  0  0  0  0  0  0  0  0  0  0  0
  1  2  1  0
  2  3  1  0
  2 22  2  0
  3  4  1  0
  3  9  2  0
  4  5  2  0
  4  6  1  0
  6  7  1  0
  6  8  1  0
  9 10  1  0
 10 11  1  0
 10 21  2  0
 11 12  1  0
 11 13  1  0
 11 17  1  0
 13 14  1  0
 13 15  1  0
 13 16  1  0
 17 18  1  0
 17 19  1  0
 17 20  1  0
 21 22  1  0
 22 23  1  0
M  END
$$$$
