F740_61
     RDKit          3D

 26 28  0  0  0  0  0  0  0  0999 V2000
  -19.9247   12.4715   28.8311 O   0  0  0  0  0  0  0  0  0  0  0  0
  -20.9872   12.4715   28.2176 C   0  0  0  0  0  0  0  0  0  0  0  0
  -20.9430   12.2730   26.8605 N   0  0  0  0  0  0  0  0  0  0  0  0
  -21.8286   12.1576   26.3595 H   0  0  0  0  0  0  0  0  0  0  0  0
  -19.7279   12.1874   26.1138 C   0  0  0  0  0  0  0  0  0  0  0  0
  -19.0594   11.4119   26.4818 H   0  0  0  0  0  0  0  0  0  0  0  0
  -19.0757   13.4231   25.5555 C   0  0  0  0  0  0  0  0  0  0  0  0
  -19.5650   14.3800   25.6920 H   0  0  0  0  0  0  0  0  0  0  0  0
  -17.9933   13.4715   25.5691 H   0  0  0  0  0  0  0  0  0  0  0  0
  -19.7222   12.4352   24.6302 C   0  0  0  0  0  0  0  0  0  0  0  0
  -19.0828   11.8074   24.0217 H   0  0  0  0  0  0  0  0  0  0  0  0
  -20.6540   12.7148   24.1536 H   0  0  0  0  0  0  0  0  0  0  0  0
  -22.2992   12.6201   28.8846 C   0  0  0  0  0  0  0  0  0  0  0  0
  -23.3100   13.3316   28.2106 C   0  0  0  0  0  0  0  0  0  0  0  0
  -23.1322   13.7515   27.2548 H   0  0  0  0  0  0  0  0  0  0  0  0
  -24.5451   13.4754   28.8202 C   0  0  0  0  0  0  0  0  0  0  0  0
  -25.6176   14.1330   28.3075 O   0  0  0  0  0  0  0  0  0  0  0  0
  -26.5815   13.9490   29.3653 C   0  0  0  0  0  0  0  0  0  0  0  0
  -26.8946   14.9333   29.7296 H   0  0  0  0  0  0  0  0  0  0  0  0
  -27.4562   13.4303   28.9566 H   0  0  0  0  0  0  0  0  0  0  0  0
  -26.0709   13.1858   30.4787 O   0  0  0  0  0  0  0  0  0  0  0  0
  -24.8033   12.9356   30.0558 C   0  0  0  0  0  0  0  0  0  0  0  0
  -23.8370   12.2186   30.7470 C   0  0  0  0  0  0  0  0  0  0  0  0
  -24.0572   11.8022   31.6968 H   0  0  0  0  0  0  0  0  0  0  0  0
  -22.5837   12.0592   30.1546 C   0  0  0  0  0  0  0  0  0  0  0  0
  -21.8427   11.4976   30.6637 H   0  0  0  0  0  0  0  0  0  0  0  0
  1  2  2  0
  2  3  1  0
  2 13  1  0
  3  4  1  0
  3  5  1  0
  5  6  1  0
  5  7  1  0
  5 10  1  0
  7  8  1  0
  7  9  1  0
  7 10  1  0
 10 11  1  0
 10 12  1  0
 13 14  1  0
 13 25  2  0
 14 15  1  0
 14 16  2  0
 16 17  1  0
 16 22  1  0
 17 18  1  0
 18 19  1  0
 18 20  1  0
 18 21  1  0
 21 22  1  0
 22 23  2  0
 23 24  1  0
 23 25  1  0
 25 26  1  0
M  END
$$$$
