F687_68
     RDKit          3D

 24 25  0  0  0  0  0  0  0  0999 V2000
  -19.9579   11.1311   24.9325 F   0  0  0  0  0  0  0  0  0  0  0  0
  -19.6239   12.4177   25.1171 C   0  0  0  0  0  0  0  0  0  0  0  0
  -19.8639   13.0535   26.3518 C   0  0  0  0  0  0  0  0  0  0  0  0
  -20.4427   12.4241   27.4392 N   0  0  0  0  0  0  0  0  0  0  0  0
  -20.1140   11.5144   27.7487 H   0  0  0  0  0  0  0  0  0  0  0  0
  -21.5403   12.9517   28.2369 C   0  0  0  0  0  0  0  0  0  0  0  0
  -21.5565   12.4446   29.2100 H   0  0  0  0  0  0  0  0  0  0  0  0
  -21.3768   14.0214   28.4140 H   0  0  0  0  0  0  0  0  0  0  0  0
  -22.9051   12.7973   27.6236 C   0  0  0  0  0  0  0  0  0  0  0  0
  -23.2598   11.6916   27.0144 N   0  0  0  0  0  0  0  0  0  0  0  0
  -24.5340   11.9139   26.5955 N   0  0  0  0  0  0  0  0  0  0  0  0
  -25.0864   11.2083   26.0744 H   0  0  0  0  0  0  0  0  0  0  0  0
  -24.9726   13.1420   26.9413 C   0  0  0  0  0  0  0  0  0  0  0  0
  -25.9440   13.4914   26.7028 H   0  0  0  0  0  0  0  0  0  0  0  0
  -23.9463   13.7203   27.6018 C   0  0  0  0  0  0  0  0  0  0  0  0
  -23.9354   14.6909   28.0296 H   0  0  0  0  0  0  0  0  0  0  0  0
  -19.5071   14.3971   26.4888 C   0  0  0  0  0  0  0  0  0  0  0  0
  -19.6909   14.9007   27.4019 H   0  0  0  0  0  0  0  0  0  0  0  0
  -18.9126   15.0748   25.4241 C   0  0  0  0  0  0  0  0  0  0  0  0
  -18.6413   16.0930   25.5366 H   0  0  0  0  0  0  0  0  0  0  0  0
  -18.6701   14.4250   24.2121 C   0  0  0  0  0  0  0  0  0  0  0  0
  -18.2165   14.9500   23.4107 H   0  0  0  0  0  0  0  0  0  0  0  0
  -19.0301   13.0873   24.0575 C   0  0  0  0  0  0  0  0  0  0  0  0
  -18.8585   12.5851   23.1410 H   0  0  0  0  0  0  0  0  0  0  0  0
  1  2  1  0
  2  3  1  0
  2 23  2  0
  3  4  1  0
  3 17  2  0
  4  5  1  0
  4  6  1  0
  6  7  1  0
  6  8  1  0
  6  9  1  0
  9 10  2  0
  9 15  1  0
 10 11  1  0
 11 12  1  0
 11 13  1  0
 13 14  1  0
 13 15  2  0
 15 16  1  0
 17 18  1  0
 17 19  1  0
 19 20  1  0
 19 21  2  0
 21 22  1  0
 21 23  1  0
 23 24  1  0
M  END
$$$$
