F367_46
     RDKit          3D

 31 32  0  0  0  0  0  0  0  0999 V2000
  -20.7006   11.0293   26.6113 O   0  0  0  0  0  0  0  0  0  0  0  0
  -20.5331   12.2342   26.4753 C   0  0  0  0  0  0  0  0  0  0  0  0
  -21.2936   13.0524   27.2562 N   0  0  0  0  0  0  0  0  0  0  0  0
  -21.1316   14.0664   27.2567 H   0  0  0  0  0  0  0  0  0  0  0  0
  -22.3239   12.5379   28.1356 C   0  0  0  0  0  0  0  0  0  0  0  0
  -21.9660   12.6084   29.1693 H   0  0  0  0  0  0  0  0  0  0  0  0
  -22.4850   11.4785   27.9060 H   0  0  0  0  0  0  0  0  0  0  0  0
  -23.5678   13.3304   27.9460 C   0  0  0  0  0  0  0  0  0  0  0  0
  -24.0191   14.3422   28.7243 C   0  0  0  0  0  0  0  0  0  0  0  0
  -23.6213   14.7924   29.5950 H   0  0  0  0  0  0  0  0  0  0  0  0
  -25.1841   14.7451   28.1695 N   0  0  0  0  0  0  0  0  0  0  0  0
  -26.0696   15.7988   28.6182 C   0  0  0  0  0  0  0  0  0  0  0  0
  -27.0648   15.5962   28.2072 H   0  0  0  0  0  0  0  0  0  0  0  0
  -26.1373   15.7319   29.7091 H   0  0  0  0  0  0  0  0  0  0  0  0
  -25.5908   17.1740   28.1894 C   0  0  0  0  0  0  0  0  0  0  0  0
  -25.5173   17.2425   27.0985 H   0  0  0  0  0  0  0  0  0  0  0  0
  -24.6019   17.3958   28.6041 H   0  0  0  0  0  0  0  0  0  0  0  0
  -26.2869   17.9440   28.5353 H   0  0  0  0  0  0  0  0  0  0  0  0
  -25.4870   14.0229   27.0613 N   0  0  0  0  0  0  0  0  0  0  0  0
  -24.5079   13.1697   26.9356 C   0  0  0  0  0  0  0  0  0  0  0  0
  -24.4565   12.4587   26.1500 H   0  0  0  0  0  0  0  0  0  0  0  0
  -19.5316   12.8068   25.5554 C   0  0  0  0  0  0  0  0  0  0  0  0
  -19.4314   12.2626   24.2687 C   0  0  0  0  0  0  0  0  0  0  0  0
  -20.0661   11.4590   23.9871 H   0  0  0  0  0  0  0  0  0  0  0  0
  -18.5566   12.7132   23.3672 N   0  0  0  0  0  0  0  0  0  0  0  0
  -17.7444   13.7205   23.6811 C   0  0  0  0  0  0  0  0  0  0  0  0
  -17.0599   14.0564   22.9431 H   0  0  0  0  0  0  0  0  0  0  0  0
  -17.7833   14.3253   24.9346 C   0  0  0  0  0  0  0  0  0  0  0  0
  -17.1290   15.1281   25.1534 H   0  0  0  0  0  0  0  0  0  0  0  0
  -18.6848   13.8715   25.8889 C   0  0  0  0  0  0  0  0  0  0  0  0
  -18.7275   14.3332   26.8408 H   0  0  0  0  0  0  0  0  0  0  0  0
  1  2  2  0
  2  3  1  0
  2 22  1  0
  3  4  1  0
  3  5  1  0
  5  6  1  0
  5  7  1  0
  5  8  1  0
  8  9  2  0
  8 20  1  0
  9 10  1  0
  9 11  1  0
 11 12  1  0
 11 19  1  0
 12 13  1  0
 12 14  1  0
 12 15  1  0
 15 16  1  0
 15 17  1  0
 15 18  1  0
 19 20  2  0
 20 21  1  0
 22 23  1  0
 22 30  2  0
 23 24  1  0
 23 25  2  0
 25 26  1  0
 26 27  1  0
 26 28  2  0
 28 29  1  0
 28 30  1  0
 30 31  1  0
M  END
$$$$
