F374_92
     RDKit          3D

 18 18  0  0  0  0  0  0  0  0999 V2000
  -24.1972   12.6145   30.4124 O   0  0  0  0  0  0  0  0  0  0  0  0
  -23.4253   13.3452   29.7938 C   0  0  0  0  0  0  0  0  0  0  0  0
  -23.3153   14.6420   30.2153 N   0  0  0  0  0  0  0  0  0  0  0  0
  -22.6208   15.2263   29.7287 H   0  0  0  0  0  0  0  0  0  0  0  0
  -24.0969   15.1986   31.2993 C   0  0  0  0  0  0  0  0  0  0  0  0
  -24.0952   14.4821   32.1283 H   0  0  0  0  0  0  0  0  0  0  0  0
  -23.5982   16.1113   31.6408 H   0  0  0  0  0  0  0  0  0  0  0  0
  -25.5179   15.5018   30.8661 C   0  0  0  0  0  0  0  0  0  0  0  0
  -26.0898   15.9220   31.6988 H   0  0  0  0  0  0  0  0  0  0  0  0
  -25.5301   16.2227   30.0420 H   0  0  0  0  0  0  0  0  0  0  0  0
  -26.0239   14.5933   30.5232 H   0  0  0  0  0  0  0  0  0  0  0  0
  -22.6013   12.9558   28.6762 C   0  0  0  0  0  0  0  0  0  0  0  0
  -21.6593   13.7707   28.1181 N   0  0  0  0  0  0  0  0  0  0  0  0
  -21.1002   13.1129   27.1336 N   0  0  0  0  0  0  0  0  0  0  0  0
  -21.6760   11.9030   27.0694 N   0  0  0  0  0  0  0  0  0  0  0  0
  -21.4085   11.1854   26.3700 H   0  0  0  0  0  0  0  0  0  0  0  0
  -22.6048   11.7766   28.0069 C   0  0  0  0  0  0  0  0  0  0  0  0
  -23.1839   10.8992   28.1381 H   0  0  0  0  0  0  0  0  0  0  0  0
  1  2  2  0
  2  3  1  0
  2 12  1  0
  3  4  1  0
  3  5  1  0
  5  6  1  0
  5  7  1  0
  5  8  1  0
  8  9  1  0
  8 10  1  0
  8 11  1  0
 12 13  1  0
 12 17  2  0
 13 14  2  0
 14 15  1  0
 15 16  1  0
 15 17  1  0
 17 18  1  0
M  END
$$$$
