F229_97
     RDKit          3D

 27 28  0  0  0  0  0  0  0  0999 V2000
  -21.7337   11.7568   30.3989 F   0  0  0  0  0  0  0  0  0  0  0  0
  -22.8830   12.2724   29.9338 C   0  0  0  0  0  0  0  0  0  0  0  0
  -22.8854   13.1759   28.8522 C   0  0  0  0  0  0  0  0  0  0  0  0
  -21.7361   13.5925   28.1927 N   0  0  0  0  0  0  0  0  0  0  0  0
  -21.4844   14.5734   28.2252 H   0  0  0  0  0  0  0  0  0  0  0  0
  -20.8468   12.7130   27.4542 C   0  0  0  0  0  0  0  0  0  0  0  0
  -20.2797   12.0939   28.1602 H   0  0  0  0  0  0  0  0  0  0  0  0
  -21.4371   12.0326   26.8289 H   0  0  0  0  0  0  0  0  0  0  0  0
  -19.8735   13.4308   26.5697 C   0  0  0  0  0  0  0  0  0  0  0  0
  -19.4872   13.0669   25.2813 C   0  0  0  0  0  0  0  0  0  0  0  0
  -19.9261   11.8989   24.4804 C   0  0  0  0  0  0  0  0  0  0  0  0
  -21.0192   11.8566   24.4294 H   0  0  0  0  0  0  0  0  0  0  0  0
  -19.5665   10.9695   24.9343 H   0  0  0  0  0  0  0  0  0  0  0  0
  -19.5449   11.9440   23.4548 H   0  0  0  0  0  0  0  0  0  0  0  0
  -18.6300   13.9189   24.7936 N   0  0  0  0  0  0  0  0  0  0  0  0
  -18.4605   14.8452   25.7686 N   0  0  0  0  0  0  0  0  0  0  0  0
  -17.8263   15.6594   25.6652 H   0  0  0  0  0  0  0  0  0  0  0  0
  -19.2078   14.5733   26.8577 C   0  0  0  0  0  0  0  0  0  0  0  0
  -19.2065   15.1914   27.7167 H   0  0  0  0  0  0  0  0  0  0  0  0
  -24.1097   13.6741   28.4028 C   0  0  0  0  0  0  0  0  0  0  0  0
  -24.1366   14.3423   27.5826 H   0  0  0  0  0  0  0  0  0  0  0  0
  -25.2931   13.2914   29.0324 C   0  0  0  0  0  0  0  0  0  0  0  0
  -26.2201   13.6756   28.6890 H   0  0  0  0  0  0  0  0  0  0  0  0
  -25.2730   12.4042   30.1111 C   0  0  0  0  0  0  0  0  0  0  0  0
  -26.1798   12.1203   30.5816 H   0  0  0  0  0  0  0  0  0  0  0  0
  -24.0594   11.8902   30.5630 C   0  0  0  0  0  0  0  0  0  0  0  0
  -24.0308   11.2109   31.3765 H   0  0  0  0  0  0  0  0  0  0  0  0
  1  2  1  0
  2  3  1  0
  2 26  2  0
  3  4  1  0
  3 20  2  0
  4  5  1  0
  4  6  1  0
  6  7  1  0
  6  8  1  0
  6  9  1  0
  9 10  1  0
  9 18  2  0
 10 11  1  0
 10 15  2  0
 11 12  1  0
 11 13  1  0
 11 14  1  0
 15 16  1  0
 16 17  1  0
 16 18  1  0
 18 19  1  0
 20 21  1  0
 20 22  1  0
 22 23  1  0
 22 24  2  0
 24 25  1  0
 24 26  1  0
 26 27  1  0
M  END
$$$$
