F558_12
     RDKit          3D

 32 33  0  0  0  0  0  0  0  0999 V2000
  -17.3936   15.7451   27.4296 O   0  0  0  0  0  0  0  0  0  0  0  0
  -17.2025   15.2656   26.3218 C   0  0  0  0  0  0  0  0  0  0  0  0
  -16.2304   15.6518   25.4542 O   0  0  0  0  0  0  0  0  0  0  0  0
  -15.4499   16.7640   25.8984 C   0  0  0  0  0  0  0  0  0  0  0  0
  -14.9436   16.5254   26.8383 H   0  0  0  0  0  0  0  0  0  0  0  0
  -16.0816   17.6513   26.0119 H   0  0  0  0  0  0  0  0  0  0  0  0
  -14.6930   16.9713   25.1376 H   0  0  0  0  0  0  0  0  0  0  0  0
  -17.9477   14.2806   25.7499 N   0  0  0  0  0  0  0  0  0  0  0  0
  -17.6732   14.0671   24.7865 H   0  0  0  0  0  0  0  0  0  0  0  0
  -19.0257   13.5459   26.2895 C   0  0  0  0  0  0  0  0  0  0  0  0
  -19.2614   12.2020   25.9899 C   0  0  0  0  0  0  0  0  0  0  0  0
  -18.6277   11.6775   25.3251 H   0  0  0  0  0  0  0  0  0  0  0  0
  -20.3478   11.5535   26.5672 C   0  0  0  0  0  0  0  0  0  0  0  0
  -20.5268   10.5339   26.3379 H   0  0  0  0  0  0  0  0  0  0  0  0
  -21.2028   12.2333   27.4370 C   0  0  0  0  0  0  0  0  0  0  0  0
  -22.3944   11.5273   28.0441 C   0  0  0  0  0  0  0  0  0  0  0  0
  -22.0680   10.9543   28.9221 H   0  0  0  0  0  0  0  0  0  0  0  0
  -22.7747   10.7694   27.3464 H   0  0  0  0  0  0  0  0  0  0  0  0
  -23.5129   12.4624   28.4284 C   0  0  0  0  0  0  0  0  0  0  0  0
  -23.6886   12.8769   29.7434 C   0  0  0  0  0  0  0  0  0  0  0  0
  -23.0254   12.5560   30.5032 H   0  0  0  0  0  0  0  0  0  0  0  0
  -24.7456   13.7215   30.0671 C   0  0  0  0  0  0  0  0  0  0  0  0
  -24.8873   14.0416   31.0689 H   0  0  0  0  0  0  0  0  0  0  0  0
  -25.6072   14.1527   29.1486 N   0  0  0  0  0  0  0  0  0  0  0  0
  -25.4606   13.7666   27.8826 C   0  0  0  0  0  0  0  0  0  0  0  0
  -26.1625   14.1211   27.1698 H   0  0  0  0  0  0  0  0  0  0  0  0
  -24.4271   12.9228   27.4886 C   0  0  0  0  0  0  0  0  0  0  0  0
  -24.3450   12.6311   26.4732 H   0  0  0  0  0  0  0  0  0  0  0  0
  -20.9635   13.5806   27.7187 C   0  0  0  0  0  0  0  0  0  0  0  0
  -21.6071   14.1097   28.3735 H   0  0  0  0  0  0  0  0  0  0  0  0
  -19.8799   14.2388   27.1469 C   0  0  0  0  0  0  0  0  0  0  0  0
  -19.7008   15.2591   27.3677 H   0  0  0  0  0  0  0  0  0  0  0  0
  1  2  2  0
  2  3  1  0
  2  8  1  0
  3  4  1  0
  4  5  1  0
  4  6  1  0
  4  7  1  0
  8  9  1  0
  8 10  1  0
 10 11  1  0
 10 31  2  0
 11 12  1  0
 11 13  2  0
 13 14  1  0
 13 15  1  0
 15 16  1  0
 15 29  2  0
 16 17  1  0
 16 18  1  0
 16 19  1  0
 19 20  1  0
 19 27  2  0
 20 21  1  0
 20 22  2  0
 22 23  1  0
 22 24  1  0
 24 25  2  0
 25 26  1  0
 25 27  1  0
 27 28  1  0
 29 30  1  0
 29 31  1  0
 31 32  1  0
M  END
$$$$
