F179_38
     RDKit          3D

 29 30  0  0  0  0  0  0  0  0999 V2000
  -18.6196   12.8579   26.1259 C   0  0  0  0  0  0  0  0  0  0  0  0
  -18.7701   13.9396   26.0550 H   0  0  0  0  0  0  0  0  0  0  0  0
  -17.9263   12.5506   25.3349 H   0  0  0  0  0  0  0  0  0  0  0  0
  -18.1251   12.6407   27.0791 H   0  0  0  0  0  0  0  0  0  0  0  0
  -19.9376   12.0994   26.0065 C   0  0  0  0  0  0  0  0  0  0  0  0
  -19.6662   10.6994   26.0810 O   0  0  0  0  0  0  0  0  0  0  0  0
  -19.0317   10.4901   25.3746 H   0  0  0  0  0  0  0  0  0  0  0  0
  -20.9173   12.5126   27.0573 C   0  0  0  0  0  0  0  0  0  0  0  0
  -20.6993   12.5586   28.4295 C   0  0  0  0  0  0  0  0  0  0  0  0
  -19.7938   12.2922   28.9152 H   0  0  0  0  0  0  0  0  0  0  0  0
  -21.7608   12.9765   29.0648 N   0  0  0  0  0  0  0  0  0  0  0  0
  -22.6890   13.2023   28.0926 N   0  0  0  0  0  0  0  0  0  0  0  0
  -24.0113   13.6764   28.4204 C   0  0  0  0  0  0  0  0  0  0  0  0
  -24.3851   14.2287   27.5465 H   0  0  0  0  0  0  0  0  0  0  0  0
  -25.0111   12.5765   28.7740 C   0  0  0  0  0  0  0  0  0  0  0  0
  -25.3533   12.0261   27.8915 H   0  0  0  0  0  0  0  0  0  0  0  0
  -24.5774   11.8468   29.4680 H   0  0  0  0  0  0  0  0  0  0  0  0
  -26.1510   13.3203   29.4636 C   0  0  0  0  0  0  0  0  0  0  0  0
  -26.9429   13.5573   28.7435 H   0  0  0  0  0  0  0  0  0  0  0  0
  -26.6008   12.7112   30.2547 H   0  0  0  0  0  0  0  0  0  0  0  0
  -25.5491   14.6135   30.0140 C   0  0  0  0  0  0  0  0  0  0  0  0
  -25.6888   14.6991   31.0971 H   0  0  0  0  0  0  0  0  0  0  0  0
  -26.0417   15.4774   29.5512 H   0  0  0  0  0  0  0  0  0  0  0  0
  -24.0699   14.5878   29.6445 C   0  0  0  0  0  0  0  0  0  0  0  0
  -23.4883   14.1757   30.4788 H   0  0  0  0  0  0  0  0  0  0  0  0
  -23.6797   15.5901   29.4372 H   0  0  0  0  0  0  0  0  0  0  0  0
  -22.1914   12.9267   26.8660 C   0  0  0  0  0  0  0  0  0  0  0  0
  -22.7649   13.0483   25.9842 H   0  0  0  0  0  0  0  0  0  0  0  0
  -20.3740   12.2877   25.0173 H   0  0  0  0  0  0  0  0  0  0  0  0
  1  2  1  0
  1  3  1  0
  1  4  1  0
  1  5  1  0
  5  6  1  0
  5  8  1  0
  5 29  1  0
  6  7  1  0
  8  9  1  0
  8 27  2  0
  9 10  1  0
  9 11  2  0
 11 12  1  0
 12 13  1  0
 12 27  1  0
 13 14  1  0
 13 15  1  0
 13 24  1  0
 15 16  1  0
 15 17  1  0
 15 18  1  0
 18 19  1  0
 18 20  1  0
 18 21  1  0
 21 22  1  0
 21 23  1  0
 21 24  1  0
 24 25  1  0
 24 26  1  0
 27 28  1  0
M  END
$$$$
