F369_8
     RDKit          3D

 32 33  0  0  0  0  0  0  0  0999 V2000
  -20.9482   14.3278   28.0889 O   0  0  0  0  0  0  0  0  0  0  0  0
  -20.8481   13.3220   27.4141 C   0  0  0  0  0  0  0  0  0  0  0  0
  -21.9297   12.5168   27.1951 N   0  0  0  0  0  0  0  0  0  0  0  0
  -21.7275   11.6956   26.6163 H   0  0  0  0  0  0  0  0  0  0  0  0
  -23.2279   12.6750   27.6559 C   0  0  0  0  0  0  0  0  0  0  0  0
  -23.7218   13.6877   28.3979 C   0  0  0  0  0  0  0  0  0  0  0  0
  -23.2709   14.5633   28.7849 H   0  0  0  0  0  0  0  0  0  0  0  0
  -25.0269   13.3775   28.5861 N   0  0  0  0  0  0  0  0  0  0  0  0
  -26.0177   14.1307   29.3254 C   0  0  0  0  0  0  0  0  0  0  0  0
  -26.8917   13.4843   29.4599 H   0  0  0  0  0  0  0  0  0  0  0  0
  -25.6028   14.3474   30.3160 H   0  0  0  0  0  0  0  0  0  0  0  0
  -26.4031   15.4201   28.6222 C   0  0  0  0  0  0  0  0  0  0  0  0
  -26.8329   15.2194   27.6352 H   0  0  0  0  0  0  0  0  0  0  0  0
  -25.5312   16.0681   28.4805 H   0  0  0  0  0  0  0  0  0  0  0  0
  -27.1437   15.9682   29.2121 H   0  0  0  0  0  0  0  0  0  0  0  0
  -25.3714   12.2028   27.9812 N   0  0  0  0  0  0  0  0  0  0  0  0
  -24.2682   11.7811   27.4185 C   0  0  0  0  0  0  0  0  0  0  0  0
  -24.2014   10.8819   26.8631 H   0  0  0  0  0  0  0  0  0  0  0  0
  -19.5310   12.8849   26.7905 C   0  0  0  0  0  0  0  0  0  0  0  0
  -19.1255   12.0899   27.4289 H   0  0  0  0  0  0  0  0  0  0  0  0
  -19.7035   12.3564   25.3603 C   0  0  0  0  0  0  0  0  0  0  0  0
  -19.7007   11.2615   25.3347 H   0  0  0  0  0  0  0  0  0  0  0  0
  -20.6463   12.6844   24.9094 H   0  0  0  0  0  0  0  0  0  0  0  0
  -18.5261   12.9252   24.5812 C   0  0  0  0  0  0  0  0  0  0  0  0
  -17.6412   12.2928   24.7196 H   0  0  0  0  0  0  0  0  0  0  0  0
  -18.7315   12.9951   23.5094 H   0  0  0  0  0  0  0  0  0  0  0  0
  -18.3024   14.2852   25.2183 C   0  0  0  0  0  0  0  0  0  0  0  0
  -19.0484   15.0013   24.8568 H   0  0  0  0  0  0  0  0  0  0  0  0
  -17.3101   14.6887   24.9984 H   0  0  0  0  0  0  0  0  0  0  0  0
  -18.4983   14.0189   26.7057 C   0  0  0  0  0  0  0  0  0  0  0  0
  -18.7879   14.9262   27.2451 H   0  0  0  0  0  0  0  0  0  0  0  0
  -17.5498   13.6738   27.1374 H   0  0  0  0  0  0  0  0  0  0  0  0
  1  2  2  0
  2  3  1  0
  2 19  1  0
  3  4  1  0
  3  5  1  0
  5  6  2  0
  5 17  1  0
  6  7  1  0
  6  8  1  0
  8  9  1  0
  8 16  1  0
  9 10  1  0
  9 11  1  0
  9 12  1  0
 12 13  1  0
 12 14  1  0
 12 15  1  0
 16 17  2  0
 17 18  1  0
 19 20  1  0
 19 21  1  0
 19 30  1  0
 21 22  1  0
 21 23  1  0
 21 24  1  0
 24 25  1  0
 24 26  1  0
 24 27  1  0
 27 28  1  0
 27 29  1  0
 27 30  1  0
 30 31  1  0
 30 32  1  0
M  END
$$$$
