F368_60
     RDKit          3D

 29 30  0  0  0  0  0  0  0  0999 V2000
  -20.4564   14.4663   27.7948 O   0  0  0  0  0  0  0  0  0  0  0  0
  -20.2769   13.3418   27.3662 C   0  0  0  0  0  0  0  0  0  0  0  0
  -21.1039   12.3116   27.7225 N   0  0  0  0  0  0  0  0  0  0  0  0
  -20.8644   11.3984   27.3193 H   0  0  0  0  0  0  0  0  0  0  0  0
  -22.2118   12.3583   28.5588 C   0  0  0  0  0  0  0  0  0  0  0  0
  -22.7560   13.4445   29.1452 C   0  0  0  0  0  0  0  0  0  0  0  0
  -22.4953   14.4685   29.1166 H   0  0  0  0  0  0  0  0  0  0  0  0
  -23.8081   12.9660   29.8550 N   0  0  0  0  0  0  0  0  0  0  0  0
  -24.7328   13.7151   30.6779 C   0  0  0  0  0  0  0  0  0  0  0  0
  -25.2304   14.4491   30.0337 H   0  0  0  0  0  0  0  0  0  0  0  0
  -25.4951   13.0184   31.0430 H   0  0  0  0  0  0  0  0  0  0  0  0
  -24.0401   14.3999   31.8421 C   0  0  0  0  0  0  0  0  0  0  0  0
  -24.7673   14.9501   32.4469 H   0  0  0  0  0  0  0  0  0  0  0  0
  -23.5406   13.6698   32.4870 H   0  0  0  0  0  0  0  0  0  0  0  0
  -23.2828   15.1082   31.4902 H   0  0  0  0  0  0  0  0  0  0  0  0
  -23.9431   11.6126   29.7278 N   0  0  0  0  0  0  0  0  0  0  0  0
  -22.9653   11.2521   28.9377 C   0  0  0  0  0  0  0  0  0  0  0  0
  -22.7924   10.2498   28.6422 H   0  0  0  0  0  0  0  0  0  0  0  0
  -19.1272   12.9309   26.3989 C   0  0  0  0  0  0  0  0  0  0  0  0
  -18.3742   12.2960   26.8904 H   0  0  0  0  0  0  0  0  0  0  0  0
  -19.5373   12.3307   25.0258 C   0  0  0  0  0  0  0  0  0  0  0  0
  -20.5108   12.6692   24.6549 H   0  0  0  0  0  0  0  0  0  0  0  0
  -19.4907   11.2402   24.9542 H   0  0  0  0  0  0  0  0  0  0  0  0
  -18.3433   13.0842   24.4104 C   0  0  0  0  0  0  0  0  0  0  0  0
  -18.5101   13.5116   23.4188 H   0  0  0  0  0  0  0  0  0  0  0  0
  -17.4144   12.5026   24.3991 H   0  0  0  0  0  0  0  0  0  0  0  0
  -18.4422   14.0683   25.5914 C   0  0  0  0  0  0  0  0  0  0  0  0
  -19.0858   14.9332   25.3912 H   0  0  0  0  0  0  0  0  0  0  0  0
  -17.4874   14.4218   25.9888 H   0  0  0  0  0  0  0  0  0  0  0  0
  1  2  2  0
  2  3  1  0
  2 19  1  0
  3  4  1  0
  3  5  1  0
  5  6  2  0
  5 17  1  0
  6  7  1  0
  6  8  1  0
  8  9  1  0
  8 16  1  0
  9 10  1  0
  9 11  1  0
  9 12  1  0
 12 13  1  0
 12 14  1  0
 12 15  1  0
 16 17  2  0
 17 18  1  0
 19 20  1  0
 19 21  1  0
 19 27  1  0
 21 22  1  0
 21 23  1  0
 21 24  1  0
 24 25  1  0
 24 26  1  0
 24 27  1  0
 27 28  1  0
 27 29  1  0
M  END
$$$$
