F488_23
     RDKit          3D

 39 40  0  0  0  0  0  0  0  0999 V2000
  -21.5636   10.3656   26.7791 O   0  0  0  0  0  0  0  0  0  0  0  0
  -21.4311   11.4251   27.3837 C   0  0  0  0  0  0  0  0  0  0  0  0
  -22.5467   11.9473   28.2878 C   0  0  0  0  0  0  0  0  0  0  0  0
  -23.3432   11.1938   28.2867 H   0  0  0  0  0  0  0  0  0  0  0  0
  -22.1971   12.0010   29.3261 H   0  0  0  0  0  0  0  0  0  0  0  0
  -23.1239   13.1776   27.8834 O   0  0  0  0  0  0  0  0  0  0  0  0
  -24.2509   13.6231   28.5258 C   0  0  0  0  0  0  0  0  0  0  0  0
  -25.5315   13.6802   27.9771 C   0  0  0  0  0  0  0  0  0  0  0  0
  -25.7140   13.3753   26.9800 H   0  0  0  0  0  0  0  0  0  0  0  0
  -26.5860   14.1497   28.7538 C   0  0  0  0  0  0  0  0  0  0  0  0
  -27.5628   14.1893   28.3423 H   0  0  0  0  0  0  0  0  0  0  0  0
  -26.3664   14.5700   30.0658 C   0  0  0  0  0  0  0  0  0  0  0  0
  -27.5144   15.0453   30.9102 C   0  0  0  0  0  0  0  0  0  0  0  0
  -27.9547   14.2005   31.4491 H   0  0  0  0  0  0  0  0  0  0  0  0
  -27.1832   15.7949   31.6352 H   0  0  0  0  0  0  0  0  0  0  0  0
  -28.2878   15.5116   30.2914 H   0  0  0  0  0  0  0  0  0  0  0  0
  -25.0777   14.5176   30.5994 C   0  0  0  0  0  0  0  0  0  0  0  0
  -24.9015   14.8399   31.5928 H   0  0  0  0  0  0  0  0  0  0  0  0
  -24.0180   14.0482   29.8295 C   0  0  0  0  0  0  0  0  0  0  0  0
  -23.0374   14.0158   30.2289 H   0  0  0  0  0  0  0  0  0  0  0  0
  -20.2863   12.1373   27.2194 N   0  0  0  0  0  0  0  0  0  0  0  0
  -19.1612   11.5626   26.4678 C   0  0  0  0  0  0  0  0  0  0  0  0
  -18.3672   11.3584   27.1976 H   0  0  0  0  0  0  0  0  0  0  0  0
  -19.4267   10.6056   26.0088 H   0  0  0  0  0  0  0  0  0  0  0  0
  -18.6455   12.5156   25.3865 C   0  0  0  0  0  0  0  0  0  0  0  0
  -19.4027   12.7009   24.6175 H   0  0  0  0  0  0  0  0  0  0  0  0
  -17.7326   12.1257   24.9271 H   0  0  0  0  0  0  0  0  0  0  0  0
  -18.3017   13.8584   26.0125 N   0  0  0  0  0  0  0  0  0  0  0  0
  -17.5739   13.6925   26.7224 H   0  0  0  0  0  0  0  0  0  0  0  0
  -17.7162   14.8089   25.0091 C   0  0  0  0  0  0  0  0  0  0  0  0
  -17.4414   15.7279   25.5337 H   0  0  0  0  0  0  0  0  0  0  0  0
  -16.8243   14.3423   24.5815 H   0  0  0  0  0  0  0  0  0  0  0  0
  -18.4634   15.0071   24.2366 H   0  0  0  0  0  0  0  0  0  0  0  0
  -19.5068   14.4532   26.7204 C   0  0  0  0  0  0  0  0  0  0  0  0
  -20.2619   14.6582   25.9539 H   0  0  0  0  0  0  0  0  0  0  0  0
  -19.1864   15.3904   27.1857 H   0  0  0  0  0  0  0  0  0  0  0  0
  -20.0409   13.4744   27.7770 C   0  0  0  0  0  0  0  0  0  0  0  0
  -20.9453   13.9034   28.2112 H   0  0  0  0  0  0  0  0  0  0  0  0
  -19.3083   13.3544   28.5847 H   0  0  0  0  0  0  0  0  0  0  0  0
  1  2  2  0
  2  3  1  0
  2 21  1  0
  3  4  1  0
  3  5  1  0
  3  6  1  0
  6  7  1  0
  7  8  1  0
  7 19  2  0
  8  9  1  0
  8 10  2  0
 10 11  1  0
 10 12  1  0
 12 13  1  0
 12 17  2  0
 13 14  1  0
 13 15  1  0
 13 16  1  0
 17 18  1  0
 17 19  1  0
 19 20  1  0
 21 22  1  0
 21 37  1  0
 22 23  1  0
 22 24  1  0
 22 25  1  0
 25 26  1  0
 25 27  1  0
 25 28  1  0
 28 29  1  0
 28 30  1  0
 28 34  1  0
 30 31  1  0
 30 32  1  0
 30 33  1  0
 34 35  1  0
 34 36  1  0
 34 37  1  0
 37 38  1  0
 37 39  1  0
M  END
$$$$
