F205_5
     RDKit          3D

 20 20  0  0  0  0  0  0  0  0999 V2000
  -25.5238   14.0700   26.9841 O   0  0  0  0  0  0  0  0  0  0  0  0
  -25.1192   13.4595   27.9929 C   0  0  0  0  0  0  0  0  0  0  0  0
  -25.8836   13.5146   29.1743 N   0  0  0  0  0  0  0  0  0  0  0  0
  -27.1259   14.2809   29.1865 C   0  0  0  0  0  0  0  0  0  0  0  0
  -27.9577   13.6183   29.4438 H   0  0  0  0  0  0  0  0  0  0  0  0
  -27.3452   14.7330   28.2152 H   0  0  0  0  0  0  0  0  0  0  0  0
  -27.0446   15.0869   29.9229 H   0  0  0  0  0  0  0  0  0  0  0  0
  -25.4557   12.8471   30.3448 C   0  0  0  0  0  0  0  0  0  0  0  0
  -26.2777   12.9448   31.5998 C   0  0  0  0  0  0  0  0  0  0  0  0
  -26.3612   13.9858   31.9286 H   0  0  0  0  0  0  0  0  0  0  0  0
  -25.8287   12.3810   32.4248 H   0  0  0  0  0  0  0  0  0  0  0  0
  -27.2812   12.5389   31.4413 H   0  0  0  0  0  0  0  0  0  0  0  0
  -24.3051   12.1088   30.3175 C   0  0  0  0  0  0  0  0  0  0  0  0
  -23.9822   11.6012   31.1896 H   0  0  0  0  0  0  0  0  0  0  0  0
  -23.5118   12.0061   29.1430 C   0  0  0  0  0  0  0  0  0  0  0  0
  -22.6216   11.4320   29.1542 H   0  0  0  0  0  0  0  0  0  0  0  0
  -23.8981   12.6645   28.0135 C   0  0  0  0  0  0  0  0  0  0  0  0
  -23.1783   12.6212   26.8452 N   0  0  0  0  0  0  0  0  0  0  0  0
  -22.3207   12.0929   26.7740 H   0  0  0  0  0  0  0  0  0  0  0  0
  -23.5429   13.1421   26.0510 H   0  0  0  0  0  0  0  0  0  0  0  0
  1  2  2  0
  2  3  1  0
  2 17  1  0
  3  4  1  0
  3  8  1  0
  4  5  1  0
  4  6  1  0
  4  7  1  0
  8  9  1  0
  8 13  2  0
  9 10  1  0
  9 11  1  0
  9 12  1  0
 13 14  1  0
 13 15  1  0
 15 16  1  0
 15 17  2  0
 17 18  1  0
 18 19  1  0
 18 20  1  0
M  END
$$$$
