F126_53
     RDKit          3D

 23 23  0  0  0  0  0  0  0  0999 V2000
  -22.6855   10.3527   28.1554 Cl  0  0  0  0  0  0  0  0  0  0  0  0
  -23.2170   11.6297   29.1809 C   0  0  0  0  0  0  0  0  0  0  0  0
  -24.1098   12.6333   28.7718 C   0  0  0  0  0  0  0  0  0  0  0  0
  -24.7194   12.7482   27.4303 C   0  0  0  0  0  0  0  0  0  0  0  0
  -24.4447   12.1355   26.4093 O   0  0  0  0  0  0  0  0  0  0  0  0
  -25.7225   13.6466   27.2652 N   0  0  0  0  0  0  0  0  0  0  0  0
  -26.1477   13.7380   26.3346 H   0  0  0  0  0  0  0  0  0  0  0  0
  -26.0284   14.2203   28.0614 H   0  0  0  0  0  0  0  0  0  0  0  0
  -24.4583   13.5892   29.6696 N   0  0  0  0  0  0  0  0  0  0  0  0
  -23.9664   13.5750   30.8989 C   0  0  0  0  0  0  0  0  0  0  0  0
  -24.3859   14.6607   31.8572 C   0  0  0  0  0  0  0  0  0  0  0  0
  -25.4826   14.6943   31.8801 H   0  0  0  0  0  0  0  0  0  0  0  0
  -23.8983   14.3577   33.2728 C   0  0  0  0  0  0  0  0  0  0  0  0
  -22.8035   14.3338   33.3291 H   0  0  0  0  0  0  0  0  0  0  0  0
  -24.2684   13.3845   33.6151 H   0  0  0  0  0  0  0  0  0  0  0  0
  -24.2534   15.1186   33.9759 H   0  0  0  0  0  0  0  0  0  0  0  0
  -23.8879   16.0265   31.3846 C   0  0  0  0  0  0  0  0  0  0  0  0
  -22.7934   16.0735   31.3621 H   0  0  0  0  0  0  0  0  0  0  0  0
  -24.2438   16.8199   32.0510 H   0  0  0  0  0  0  0  0  0  0  0  0
  -24.2503   16.2477   30.3749 H   0  0  0  0  0  0  0  0  0  0  0  0
  -23.1149   12.6303   31.3090 N   0  0  0  0  0  0  0  0  0  0  0  0
  -22.7367   11.6713   30.4845 C   0  0  0  0  0  0  0  0  0  0  0  0
  -22.0598   10.9309   30.8299 H   0  0  0  0  0  0  0  0  0  0  0  0
  1  2  1  0
  2  3  1  0
  2 22  2  0
  3  4  1  0
  3  9  2  0
  4  5  2  0
  4  6  1  0
  6  7  1  0
  6  8  1  0
  9 10  1  0
 10 11  1  0
 10 21  2  0
 11 12  1  0
 11 13  1  0
 11 17  1  0
 13 14  1  0
 13 15  1  0
 13 16  1  0
 17 18  1  0
 17 19  1  0
 17 20  1  0
 21 22  1  0
 22 23  1  0
M  END
$$$$
