F393_35
     RDKit          3D

 24 24  0  0  0  0  0  0  0  0999 V2000
  -24.3171   16.2145   29.4259 O   0  0  0  0  0  0  0  0  0  0  0  0
  -23.9252   15.2263   30.0339 C   0  0  0  0  0  0  0  0  0  0  0  0
  -23.3646   15.2622   31.2732 O   0  0  0  0  0  0  0  0  0  0  0  0
  -23.2770   16.5686   31.8563 C   0  0  0  0  0  0  0  0  0  0  0  0
  -22.6939   17.2262   31.2027 H   0  0  0  0  0  0  0  0  0  0  0  0
  -24.2834   16.9793   31.9926 H   0  0  0  0  0  0  0  0  0  0  0  0
  -22.5884   16.4406   33.2009 C   0  0  0  0  0  0  0  0  0  0  0  0
  -21.5890   16.0077   33.0833 H   0  0  0  0  0  0  0  0  0  0  0  0
  -23.1512   15.7695   33.8586 H   0  0  0  0  0  0  0  0  0  0  0  0
  -22.4959   17.4161   33.6868 H   0  0  0  0  0  0  0  0  0  0  0  0
  -24.0153   13.9597   29.5173 N   0  0  0  0  0  0  0  0  0  0  0  0
  -24.6071   13.7203   28.2015 C   0  0  0  0  0  0  0  0  0  0  0  0
  -25.5630   13.2140   28.3798 H   0  0  0  0  0  0  0  0  0  0  0  0
  -24.8122   14.6596   27.6780 H   0  0  0  0  0  0  0  0  0  0  0  0
  -23.6961   12.8286   27.3578 C   0  0  0  0  0  0  0  0  0  0  0  0
  -22.7625   13.3446   27.1024 H   0  0  0  0  0  0  0  0  0  0  0  0
  -24.1972   12.5573   26.4230 H   0  0  0  0  0  0  0  0  0  0  0  0
  -23.3823   11.6138   28.0544 O   0  0  0  0  0  0  0  0  0  0  0  0
  -22.6996   11.8946   29.2858 C   0  0  0  0  0  0  0  0  0  0  0  0
  -22.4694   10.9382   29.7656 H   0  0  0  0  0  0  0  0  0  0  0  0
  -21.7500   12.3952   29.0599 H   0  0  0  0  0  0  0  0  0  0  0  0
  -23.5677   12.7495   30.2103 C   0  0  0  0  0  0  0  0  0  0  0  0
  -23.0220   12.9828   31.1288 H   0  0  0  0  0  0  0  0  0  0  0  0
  -24.4745   12.1987   30.4850 H   0  0  0  0  0  0  0  0  0  0  0  0
  1  2  2  0
  2  3  1  0
  2 11  1  0
  3  4  1  0
  4  5  1  0
  4  6  1  0
  4  7  1  0
  7  8  1  0
  7  9  1  0
  7 10  1  0
 11 12  1  0
 11 22  1  0
 12 13  1  0
 12 14  1  0
 12 15  1  0
 15 16  1  0
 15 17  1  0
 15 18  1  0
 18 19  1  0
 19 20  1  0
 19 21  1  0
 19 22  1  0
 22 23  1  0
 22 24  1  0
M  END
$$$$
