F488_22
     RDKit          3D

 39 40  0  0  0  0  0  0  0  0999 V2000
  -21.5929   10.3750   26.7962 O   0  0  0  0  0  0  0  0  0  0  0  0
  -21.4493   11.4318   27.4030 C   0  0  0  0  0  0  0  0  0  0  0  0
  -22.5548   11.9583   28.3170 C   0  0  0  0  0  0  0  0  0  0  0  0
  -23.3485   11.2018   28.3332 H   0  0  0  0  0  0  0  0  0  0  0  0
  -22.1918   12.0228   29.3500 H   0  0  0  0  0  0  0  0  0  0  0  0
  -23.1419   13.1827   27.9089 O   0  0  0  0  0  0  0  0  0  0  0  0
  -24.2688   13.6241   28.5545 C   0  0  0  0  0  0  0  0  0  0  0  0
  -25.5494   13.6851   28.0064 C   0  0  0  0  0  0  0  0  0  0  0  0
  -25.7322   13.3868   27.0073 H   0  0  0  0  0  0  0  0  0  0  0  0
  -26.6038   14.1498   28.7863 C   0  0  0  0  0  0  0  0  0  0  0  0
  -27.5805   14.1922   28.3752 H   0  0  0  0  0  0  0  0  0  0  0  0
  -26.3838   14.5614   30.1010 C   0  0  0  0  0  0  0  0  0  0  0  0
  -27.5316   15.0313   30.9487 C   0  0  0  0  0  0  0  0  0  0  0  0
  -27.9719   14.1831   31.4821 H   0  0  0  0  0  0  0  0  0  0  0  0
  -27.2000   15.7761   31.6786 H   0  0  0  0  0  0  0  0  0  0  0  0
  -28.3049   15.5019   30.3331 H   0  0  0  0  0  0  0  0  0  0  0  0
  -25.0950   14.5052   30.6340 C   0  0  0  0  0  0  0  0  0  0  0  0
  -24.9186   14.8210   31.6294 H   0  0  0  0  0  0  0  0  0  0  0  0
  -24.0356   14.0407   29.8609 C   0  0  0  0  0  0  0  0  0  0  0  0
  -23.0548   14.0055   30.2599 H   0  0  0  0  0  0  0  0  0  0  0  0
  -20.3013   12.1373   27.2323 N   0  0  0  0  0  0  0  0  0  0  0  0
  -19.1854   11.5578   26.4706 C   0  0  0  0  0  0  0  0  0  0  0  0
  -18.3874   11.3465   27.1938 H   0  0  0  0  0  0  0  0  0  0  0  0
  -19.4604   10.6040   26.0107 H   0  0  0  0  0  0  0  0  0  0  0  0
  -18.6719   12.5110   25.3883 C   0  0  0  0  0  0  0  0  0  0  0  0
  -19.4336   12.7033   24.6255 H   0  0  0  0  0  0  0  0  0  0  0  0
  -17.7648   12.1167   24.9209 H   0  0  0  0  0  0  0  0  0  0  0  0
  -18.3149   13.8497   26.0158 N   0  0  0  0  0  0  0  0  0  0  0  0
  -17.5829   13.6770   26.7197 H   0  0  0  0  0  0  0  0  0  0  0  0
  -17.7309   14.7995   25.0109 C   0  0  0  0  0  0  0  0  0  0  0  0
  -17.4465   15.7151   25.5362 H   0  0  0  0  0  0  0  0  0  0  0  0
  -16.8453   14.3286   24.5752 H   0  0  0  0  0  0  0  0  0  0  0  0
  -18.4826   15.0047   24.2445 H   0  0  0  0  0  0  0  0  0  0  0  0
  -19.5110   14.4498   26.7344 C   0  0  0  0  0  0  0  0  0  0  0  0
  -20.2704   14.6619   25.9742 H   0  0  0  0  0  0  0  0  0  0  0  0
  -19.1813   15.3835   27.2001 H   0  0  0  0  0  0  0  0  0  0  0  0
  -20.0433   13.4712   27.7920 C   0  0  0  0  0  0  0  0  0  0  0  0
  -20.9417   13.9045   28.2343 H   0  0  0  0  0  0  0  0  0  0  0  0
  -19.3056   13.3441   28.5939 H   0  0  0  0  0  0  0  0  0  0  0  0
  1  2  2  0
  2  3  1  0
  2 21  1  0
  3  4  1  0
  3  5  1  0
  3  6  1  0
  6  7  1  0
  7  8  1  0
  7 19  2  0
  8  9  1  0
  8 10  2  0
 10 11  1  0
 10 12  1  0
 12 13  1  0
 12 17  2  0
 13 14  1  0
 13 15  1  0
 13 16  1  0
 17 18  1  0
 17 19  1  0
 19 20  1  0
 21 22  1  0
 21 37  1  0
 22 23  1  0
 22 24  1  0
 22 25  1  0
 25 26  1  0
 25 27  1  0
 25 28  1  0
 28 29  1  0
 28 30  1  0
 28 34  1  0
 30 31  1  0
 30 32  1  0
 30 33  1  0
 34 35  1  0
 34 36  1  0
 34 37  1  0
 37 38  1  0
 37 39  1  0
M  END
$$$$
