F368_59
     RDKit          3D

 29 30  0  0  0  0  0  0  0  0999 V2000
  -20.4995   14.4447   27.8052 O   0  0  0  0  0  0  0  0  0  0  0  0
  -20.3010   13.3186   27.3893 C   0  0  0  0  0  0  0  0  0  0  0  0
  -21.1063   12.2774   27.7628 N   0  0  0  0  0  0  0  0  0  0  0  0
  -20.8516   11.3640   27.3693 H   0  0  0  0  0  0  0  0  0  0  0  0
  -22.2102   12.3133   28.6047 C   0  0  0  0  0  0  0  0  0  0  0  0
  -22.7781   13.3972   29.1728 C   0  0  0  0  0  0  0  0  0  0  0  0
  -22.5430   14.4265   29.1224 H   0  0  0  0  0  0  0  0  0  0  0  0
  -23.8139   12.9070   29.8983 N   0  0  0  0  0  0  0  0  0  0  0  0
  -24.7523   13.6492   30.7118 C   0  0  0  0  0  0  0  0  0  0  0  0
  -25.2099   14.4150   30.0751 H   0  0  0  0  0  0  0  0  0  0  0  0
  -25.5424   12.9583   31.0251 H   0  0  0  0  0  0  0  0  0  0  0  0
  -24.0889   14.2795   31.9229 C   0  0  0  0  0  0  0  0  0  0  0  0
  -24.8262   14.8257   32.5191 H   0  0  0  0  0  0  0  0  0  0  0  0
  -23.6293   13.5174   32.5605 H   0  0  0  0  0  0  0  0  0  0  0  0
  -23.3041   14.9818   31.6229 H   0  0  0  0  0  0  0  0  0  0  0  0
  -23.9160   11.5485   29.7986 N   0  0  0  0  0  0  0  0  0  0  0  0
  -22.9340   11.1966   29.0099 C   0  0  0  0  0  0  0  0  0  0  0  0
  -22.7378   10.1932   28.7332 H   0  0  0  0  0  0  0  0  0  0  0  0
  -19.1489   12.9178   26.4206 C   0  0  0  0  0  0  0  0  0  0  0  0
  -18.3925   12.2851   26.9097 H   0  0  0  0  0  0  0  0  0  0  0  0
  -19.5555   12.3207   25.0451 C   0  0  0  0  0  0  0  0  0  0  0  0
  -20.5308   12.6553   24.6753 H   0  0  0  0  0  0  0  0  0  0  0  0
  -19.5029   11.2308   24.9693 H   0  0  0  0  0  0  0  0  0  0  0  0
  -18.3656   13.0831   24.4328 C   0  0  0  0  0  0  0  0  0  0  0  0
  -18.5346   13.5135   23.4429 H   0  0  0  0  0  0  0  0  0  0  0  0
  -17.4335   12.5067   24.4193 H   0  0  0  0  0  0  0  0  0  0  0  0
  -18.4700   14.0620   25.6176 C   0  0  0  0  0  0  0  0  0  0  0  0
  -19.1183   14.9242   25.4207 H   0  0  0  0  0  0  0  0  0  0  0  0
  -17.5172   14.4192   26.0165 H   0  0  0  0  0  0  0  0  0  0  0  0
  1  2  2  0
  2  3  1  0
  2 19  1  0
  3  4  1  0
  3  5  1  0
  5  6  2  0
  5 17  1  0
  6  7  1  0
  6  8  1  0
  8  9  1  0
  8 16  1  0
  9 10  1  0
  9 11  1  0
  9 12  1  0
 12 13  1  0
 12 14  1  0
 12 15  1  0
 16 17  2  0
 17 18  1  0
 19 20  1  0
 19 21  1  0
 19 27  1  0
 21 22  1  0
 21 23  1  0
 21 24  1  0
 24 25  1  0
 24 26  1  0
 24 27  1  0
 27 28  1  0
 27 29  1  0
M  END
$$$$
