F584_28
     RDKit          3D

 27 28  0  0  0  0  0  0  0  0999 V2000
  -23.5741   12.2435   32.4950 O   0  0  0  0  0  0  0  0  0  0  0  0
  -22.3587   11.5073   32.4689 C   0  0  0  0  0  0  0  0  0  0  0  0
  -22.5770   10.4901   32.8094 H   0  0  0  0  0  0  0  0  0  0  0  0
  -21.6220   11.9362   33.1569 H   0  0  0  0  0  0  0  0  0  0  0  0
  -21.9598   11.4377   31.4516 H   0  0  0  0  0  0  0  0  0  0  0  0
  -23.5464   13.5712   32.1229 C   0  0  0  0  0  0  0  0  0  0  0  0
  -24.1359   13.8730   30.8870 C   0  0  0  0  0  0  0  0  0  0  0  0
  -24.1046   15.2083   30.4578 C   0  0  0  0  0  0  0  0  0  0  0  0
  -24.5965   15.7201   29.2334 N   0  0  0  0  0  0  0  0  0  0  0  0
  -24.5758   16.7432   29.1452 H   0  0  0  0  0  0  0  0  0  0  0  0
  -25.0945   15.1500   28.1044 C   0  0  0  0  0  0  0  0  0  0  0  0
  -25.3783   15.9595   27.2524 O   0  0  0  0  0  0  0  0  0  0  0  0
  -25.1934   13.6777   27.9058 C   0  0  0  0  0  0  0  0  0  0  0  0
  -25.8317   13.5110   27.0294 H   0  0  0  0  0  0  0  0  0  0  0  0
  -24.2012   13.2766   27.6710 H   0  0  0  0  0  0  0  0  0  0  0  0
  -25.8242   13.0142   29.1026 C   0  0  0  0  0  0  0  0  0  0  0  0
  -26.6370   13.6203   29.5223 H   0  0  0  0  0  0  0  0  0  0  0  0
  -26.2669   12.0640   28.7812 H   0  0  0  0  0  0  0  0  0  0  0  0
  -24.7767   12.7118   30.1569 C   0  0  0  0  0  0  0  0  0  0  0  0
  -23.9765   12.1009   29.7188 H   0  0  0  0  0  0  0  0  0  0  0  0
  -25.2935   12.0794   30.8906 H   0  0  0  0  0  0  0  0  0  0  0  0
  -23.5068   16.2014   31.2373 C   0  0  0  0  0  0  0  0  0  0  0  0
  -23.4921   17.2051   30.8981 H   0  0  0  0  0  0  0  0  0  0  0  0
  -22.9333   15.8788   32.4599 C   0  0  0  0  0  0  0  0  0  0  0  0
  -22.4829   16.6343   33.0509 H   0  0  0  0  0  0  0  0  0  0  0  0
  -22.9518   14.5631   32.9087 C   0  0  0  0  0  0  0  0  0  0  0  0
  -22.5133   14.3254   33.8413 H   0  0  0  0  0  0  0  0  0  0  0  0
  1  2  1  0
  1  6  1  0
  2  3  1  0
  2  4  1  0
  2  5  1  0
  6  7  1  0
  6 26  2  0
  7  8  2  0
  7 19  1  0
  8  9  1  0
  8 22  1  0
  9 10  1  0
  9 11  1  0
 11 12  2  0
 11 13  1  0
 13 14  1  0
 13 15  1  0
 13 16  1  0
 16 17  1  0
 16 18  1  0
 16 19  1  0
 19 20  1  0
 19 21  1  0
 22 23  1  0
 22 24  2  0
 24 25  1  0
 24 26  1  0
 26 27  1  0
M  END
$$$$
