F13_92
     RDKit          3D

 16 16  0  0  0  0  0  0  0  0999 V2000
  -24.5998   15.2374   31.6086 Br  0  0  0  0  0  0  0  0  0  0  0  0
  -23.7489   13.8259   30.7312 C   0  0  0  0  0  0  0  0  0  0  0  0
  -23.4737   13.7114   29.4153 C   0  0  0  0  0  0  0  0  0  0  0  0
  -23.6545   14.3585   28.5975 H   0  0  0  0  0  0  0  0  0  0  0  0
  -22.8517   12.5182   29.2739 N   0  0  0  0  0  0  0  0  0  0  0  0
  -22.3561   11.9069   28.0565 C   0  0  0  0  0  0  0  0  0  0  0  0
  -22.3368   10.8249   28.2272 H   0  0  0  0  0  0  0  0  0  0  0  0
  -23.0825   12.1231   27.2652 H   0  0  0  0  0  0  0  0  0  0  0  0
  -20.9709   12.4162   27.6905 C   0  0  0  0  0  0  0  0  0  0  0  0
  -20.3009   12.3163   28.5491 H   0  0  0  0  0  0  0  0  0  0  0  0
  -20.9895   13.4649   27.3758 H   0  0  0  0  0  0  0  0  0  0  0  0
  -20.4315   11.6297   26.6324 O   0  0  0  0  0  0  0  0  0  0  0  0
  -21.0605   11.6761   25.8910 H   0  0  0  0  0  0  0  0  0  0  0  0
  -22.7176   11.8713   30.4641 N   0  0  0  0  0  0  0  0  0  0  0  0
  -23.2669   12.6723   31.3398 C   0  0  0  0  0  0  0  0  0  0  0  0
  -23.3264   12.4536   32.3747 H   0  0  0  0  0  0  0  0  0  0  0  0
  1  2  1  0
  2  3  2  0
  2 15  1  0
  3  4  1  0
  3  5  1  0
  5  6  1  0
  5 14  1  0
  6  7  1  0
  6  8  1  0
  6  9  1  0
  9 10  1  0
  9 11  1  0
  9 12  1  0
 12 13  1  0
 14 15  2  0
 15 16  1  0
M  END
$$$$
