F687_36
     RDKit          3D

 24 25  0  0  0  0  0  0  0  0999 V2000
  -19.1355   14.4523   27.6083 F   0  0  0  0  0  0  0  0  0  0  0  0
  -19.0284   13.9235   26.3795 C   0  0  0  0  0  0  0  0  0  0  0  0
  -19.7285   12.7490   26.0380 C   0  0  0  0  0  0  0  0  0  0  0  0
  -20.5574   12.0683   26.9116 N   0  0  0  0  0  0  0  0  0  0  0  0
  -20.5965   11.0535   26.9065 H   0  0  0  0  0  0  0  0  0  0  0  0
  -21.4365   12.6826   27.8961 C   0  0  0  0  0  0  0  0  0  0  0  0
  -21.3076   12.1768   28.8614 H   0  0  0  0  0  0  0  0  0  0  0  0
  -21.1565   13.7350   28.0240 H   0  0  0  0  0  0  0  0  0  0  0  0
  -22.9012   12.6413   27.5559 C   0  0  0  0  0  0  0  0  0  0  0  0
  -23.4274   11.6210   26.9224 N   0  0  0  0  0  0  0  0  0  0  0  0
  -24.7450   11.9299   26.7912 N   0  0  0  0  0  0  0  0  0  0  0  0
  -25.4260   11.3041   26.3231 H   0  0  0  0  0  0  0  0  0  0  0  0
  -25.0403   13.1270   27.3389 C   0  0  0  0  0  0  0  0  0  0  0  0
  -26.0192   13.5325   27.3357 H   0  0  0  0  0  0  0  0  0  0  0  0
  -23.8749   13.5955   27.8352 C   0  0  0  0  0  0  0  0  0  0  0  0
  -23.7280   14.5128   28.3472 H   0  0  0  0  0  0  0  0  0  0  0  0
  -19.5743   12.2336   24.7487 C   0  0  0  0  0  0  0  0  0  0  0  0
  -20.0784   11.3442   24.4731 H   0  0  0  0  0  0  0  0  0  0  0  0
  -18.7559   12.8875   23.8275 C   0  0  0  0  0  0  0  0  0  0  0  0
  -18.6466   12.4926   22.8502 H   0  0  0  0  0  0  0  0  0  0  0  0
  -18.0801   14.0578   24.1793 C   0  0  0  0  0  0  0  0  0  0  0  0
  -17.4621   14.5466   23.4702 H   0  0  0  0  0  0  0  0  0  0  0  0
  -18.2164   14.5781   25.4652 C   0  0  0  0  0  0  0  0  0  0  0  0
  -17.7034   15.4608   25.7470 H   0  0  0  0  0  0  0  0  0  0  0  0
  1  2  1  0
  2  3  1  0
  2 23  2  0
  3  4  1  0
  3 17  2  0
  4  5  1  0
  4  6  1  0
  6  7  1  0
  6  8  1  0
  6  9  1  0
  9 10  2  0
  9 15  1  0
 10 11  1  0
 11 12  1  0
 11 13  1  0
 13 14  1  0
 13 15  2  0
 15 16  1  0
 17 18  1  0
 17 19  1  0
 19 20  1  0
 19 21  2  0
 21 22  1  0
 21 23  1  0
 23 24  1  0
M  END
$$$$
