F5_79
     RDKit          3D

 21 21  0  0  0  0  0  0  0  0999 V2000
  -22.9169    9.6830   31.3589 Br  0  0  0  0  0  0  0  0  0  0  0  0
  -22.9230   11.4592   32.0115 C   0  0  0  0  0  0  0  0  0  0  0  0
  -23.7349   12.4182   31.4156 C   0  0  0  0  0  0  0  0  0  0  0  0
  -24.3522   12.1683   30.5951 H   0  0  0  0  0  0  0  0  0  0  0  0
  -23.7275   13.7217   31.9029 C   0  0  0  0  0  0  0  0  0  0  0  0
  -24.5296   14.6331   31.2671 O   0  0  0  0  0  0  0  0  0  0  0  0
  -24.1270   15.0492   29.9398 C   0  0  0  0  0  0  0  0  0  0  0  0
  -24.7444   15.8975   29.6487 H   0  0  0  0  0  0  0  0  0  0  0  0
  -24.2725   14.2100   29.2611 H   0  0  0  0  0  0  0  0  0  0  0  0
  -23.0763   15.3368   29.9612 H   0  0  0  0  0  0  0  0  0  0  0  0
  -22.9301   14.0886   32.9959 C   0  0  0  0  0  0  0  0  0  0  0  0
  -22.9264   15.5006   33.5827 C   0  0  0  0  0  0  0  0  0  0  0  0
  -22.6110   15.4508   34.6133 H   0  0  0  0  0  0  0  0  0  0  0  0
  -23.8879   15.9739   33.4732 H   0  0  0  0  0  0  0  0  0  0  0  0
  -21.9103   16.3379   32.8393 C   0  0  0  0  0  0  0  0  0  0  0  0
  -20.7155   16.2515   33.2029 O   0  0  0  0  0  0  0  0  0  0  0  0
  -22.3272   17.1039   31.9420 O   0  0  0  0  0  0  0  0  0  0  0  0
  -22.1174   13.1156   33.5753 C   0  0  0  0  0  0  0  0  0  0  0  0
  -21.4905   13.3801   34.3912 H   0  0  0  0  0  0  0  0  0  0  0  0
  -22.1114   11.8104   33.0892 C   0  0  0  0  0  0  0  0  0  0  0  0
  -21.4848   11.0852   33.5388 H   0  0  0  0  0  0  0  0  0  0  0  0
  1  2  1  0
  2  3  1  0
  2 20  2  0
  3  4  1  0
  3  5  2  0
  5  6  1  0
  5 11  1  0
  6  7  1  0
  7  8  1  0
  7  9  1  0
  7 10  1  0
 11 12  1  0
 11 18  2  0
 12 13  1  0
 12 14  1  0
 12 15  1  0
 15 16  1  0
 15 17  2  0
 18 19  1  0
 18 20  1  0
 20 21  1  0
M  END
$$$$
