F741_66
     RDKit          3D

 25 27  0  0  0  0  0  0  0  0999 V2000
  -24.0757   13.8776   27.3784 O   0  0  0  0  0  0  0  0  0  0  0  0
  -23.9049   13.5571   28.5532 C   0  0  0  0  0  0  0  0  0  0  0  0
  -24.1161   14.4928   29.5211 N   0  0  0  0  0  0  0  0  0  0  0  0
  -23.9722   14.1671   30.4911 H   0  0  0  0  0  0  0  0  0  0  0  0
  -24.5164   15.8383   29.2777 C   0  0  0  0  0  0  0  0  0  0  0  0
  -23.6808   16.5343   29.2695 H   0  0  0  0  0  0  0  0  0  0  0  0
  -25.8178   16.3623   29.8221 C   0  0  0  0  0  0  0  0  0  0  0  0
  -26.4660   15.6863   30.3663 H   0  0  0  0  0  0  0  0  0  0  0  0
  -25.8384   17.3847   30.1804 H   0  0  0  0  0  0  0  0  0  0  0  0
  -25.6580   16.1402   28.3469 C   0  0  0  0  0  0  0  0  0  0  0  0
  -25.5663   17.0078   27.7049 H   0  0  0  0  0  0  0  0  0  0  0  0
  -26.1873   15.3076   27.8977 H   0  0  0  0  0  0  0  0  0  0  0  0
  -23.4990   12.2411   28.9889 C   0  0  0  0  0  0  0  0  0  0  0  0
  -23.3130   11.8395   30.2880 C   0  0  0  0  0  0  0  0  0  0  0  0
  -22.9360   10.5211   30.1891 N   0  0  0  0  0  0  0  0  0  0  0  0
  -22.8805   10.0799   28.9044 N   0  0  0  0  0  0  0  0  0  0  0  0
  -23.2221   11.1288   28.1954 C   0  0  0  0  0  0  0  0  0  0  0  0
  -23.2783   11.1182   27.1351 H   0  0  0  0  0  0  0  0  0  0  0  0
  -22.6522    9.7563   31.3275 C   0  0  0  0  0  0  0  0  0  0  0  0
  -22.3694    8.7513   31.1508 H   0  0  0  0  0  0  0  0  0  0  0  0
  -22.7721   10.3973   32.5306 C   0  0  0  0  0  0  0  0  0  0  0  0
  -22.5732    9.8877   33.4369 H   0  0  0  0  0  0  0  0  0  0  0  0
  -23.1684   11.7740   32.5926 C   0  0  0  0  0  0  0  0  0  0  0  0
  -23.2539   12.2490   33.5361 H   0  0  0  0  0  0  0  0  0  0  0  0
  -23.4323   12.4815   31.5279 N   0  0  0  0  0  0  0  0  0  0  0  0
  1  2  2  0
  2  3  1  0
  2 13  1  0
  3  4  1  0
  3  5  1  0
  5  6  1  0
  5  7  1  0
  5 10  1  0
  7  8  1  0
  7  9  1  0
  7 10  1  0
 10 11  1  0
 10 12  1  0
 13 14  2  0
 13 17  1  0
 14 15  1  0
 14 25  1  0
 15 16  1  0
 15 19  1  0
 16 17  2  0
 17 18  1  0
 19 20  1  0
 19 21  2  0
 21 22  1  0
 21 23  1  0
 23 24  1  0
 23 25  2  0
M  END
$$$$
