F501_67
     RDKit          3D

 23 24  0  0  0  0  0  0  0  0999 V2000
  -23.0732    9.9690   31.0369 C   0  0  0  0  0  0  0  0  0  0  0  0
  -22.6304    9.9382   30.0379 H   0  0  0  0  0  0  0  0  0  0  0  0
  -23.9406    9.3064   31.0831 H   0  0  0  0  0  0  0  0  0  0  0  0
  -22.3251    9.6684   31.7741 H   0  0  0  0  0  0  0  0  0  0  0  0
  -23.5092   11.3057   31.3357 N   0  0  0  0  0  0  0  0  0  0  0  0
  -23.7848   11.6491   32.6025 N   0  0  0  0  0  0  0  0  0  0  0  0
  -24.1712   12.9028   32.6035 N   0  0  0  0  0  0  0  0  0  0  0  0
  -24.1265   13.3318   31.3253 C   0  0  0  0  0  0  0  0  0  0  0  0
  -23.7037   12.3438   30.5206 C   0  0  0  0  0  0  0  0  0  0  0  0
  -23.4972   12.4224   29.0508 C   0  0  0  0  0  0  0  0  0  0  0  0
  -22.4170   12.4684   28.8617 H   0  0  0  0  0  0  0  0  0  0  0  0
  -23.8666   11.5162   28.5610 H   0  0  0  0  0  0  0  0  0  0  0  0
  -24.1517   13.7075   28.4875 C   0  0  0  0  0  0  0  0  0  0  0  0
  -25.6086   13.4479   28.0911 C   0  0  0  0  0  0  0  0  0  0  0  0
  -26.0607   14.0996   27.1235 O   0  0  0  0  0  0  0  0  0  0  0  0
  -26.2658   12.6379   28.7796 O   0  0  0  0  0  0  0  0  0  0  0  0
  -23.9640   14.9238   29.4313 C   0  0  0  0  0  0  0  0  0  0  0  0
  -22.8886   15.1402   29.4951 H   0  0  0  0  0  0  0  0  0  0  0  0
  -24.4342   15.8216   29.0130 H   0  0  0  0  0  0  0  0  0  0  0  0
  -24.5026   14.6845   30.8597 C   0  0  0  0  0  0  0  0  0  0  0  0
  -25.5943   14.7786   30.8733 H   0  0  0  0  0  0  0  0  0  0  0  0
  -24.1010   15.4479   31.5358 H   0  0  0  0  0  0  0  0  0  0  0  0
  -23.6502   13.9449   27.5392 H   0  0  0  0  0  0  0  0  0  0  0  0
  1  2  1  0
  1  3  1  0
  1  4  1  0
  1  5  1  0
  5  6  1  0
  5  9  1  0
  6  7  2  0
  7  8  1  0
  8  9  2  0
  8 20  1  0
  9 10  1  0
 10 11  1  0
 10 12  1  0
 10 13  1  0
 13 14  1  0
 13 17  1  0
 13 23  1  0
 14 15  1  0
 14 16  2  0
 17 18  1  0
 17 19  1  0
 17 20  1  0
 20 21  1  0
 20 22  1  0
M  END
$$$$
