F95_39
     RDKit          3D

 27 27  0  0  0  0  0  0  0  0999 V2000
  -19.2517   12.3341   26.9927 S   0  0  0  0  0  0  0  0  0  0  0  0
  -18.7152   13.6475   26.7108 O   0  0  0  0  0  0  0  0  0  0  0  0
  -18.5767   11.4036   27.8708 O   0  0  0  0  0  0  0  0  0  0  0  0
  -19.4556   11.5555   25.5109 N   0  0  0  0  0  0  0  0  0  0  0  0
  -20.3376   11.0400   25.4625 H   0  0  0  0  0  0  0  0  0  0  0  0
  -18.6378   10.9987   25.2509 H   0  0  0  0  0  0  0  0  0  0  0  0
  -20.9152   12.5085   27.5308 C   0  0  0  0  0  0  0  0  0  0  0  0
  -21.2527   12.3203   28.8744 C   0  0  0  0  0  0  0  0  0  0  0  0
  -20.4893   12.1006   29.5802 H   0  0  0  0  0  0  0  0  0  0  0  0
  -22.5757   12.4077   29.2921 C   0  0  0  0  0  0  0  0  0  0  0  0
  -22.8148   12.2576   30.3149 H   0  0  0  0  0  0  0  0  0  0  0  0
  -23.5863   12.6807   28.3723 C   0  0  0  0  0  0  0  0  0  0  0  0
  -25.0244   12.7049   28.8114 C   0  0  0  0  0  0  0  0  0  0  0  0
  -25.1095   12.4832   29.8825 H   0  0  0  0  0  0  0  0  0  0  0  0
  -25.6088   11.9434   28.2804 H   0  0  0  0  0  0  0  0  0  0  0  0
  -25.6115   14.0022   28.5542 N   0  0  0  0  0  0  0  0  0  0  0  0
  -26.1571   14.1080   27.7163 H   0  0  0  0  0  0  0  0  0  0  0  0
  -25.4515   15.0302   29.3762 C   0  0  0  0  0  0  0  0  0  0  0  0
  -24.7976   14.9433   30.4049 O   0  0  0  0  0  0  0  0  0  0  0  0
  -26.1411   16.2971   28.9576 C   0  0  0  0  0  0  0  0  0  0  0  0
  -25.8673   16.5512   27.9295 H   0  0  0  0  0  0  0  0  0  0  0  0
  -27.2248   16.1635   29.0223 H   0  0  0  0  0  0  0  0  0  0  0  0
  -25.8395   17.1162   29.6160 H   0  0  0  0  0  0  0  0  0  0  0  0
  -23.2594   12.8590   27.0304 C   0  0  0  0  0  0  0  0  0  0  0  0
  -24.0233   13.0535   26.3198 H   0  0  0  0  0  0  0  0  0  0  0  0
  -21.9352   12.7705   26.6129 C   0  0  0  0  0  0  0  0  0  0  0  0
  -21.6965   12.8954   25.5853 H   0  0  0  0  0  0  0  0  0  0  0  0
  1  2  2  0
  1  3  2  0
  1  4  1  0
  1  7  1  0
  4  5  1  0
  4  6  1  0
  7  8  1  0
  7 26  2  0
  8  9  1  0
  8 10  2  0
 10 11  1  0
 10 12  1  0
 12 13  1  0
 12 24  2  0
 13 14  1  0
 13 15  1  0
 13 16  1  0
 16 17  1  0
 16 18  1  0
 18 19  2  0
 18 20  1  0
 20 21  1  0
 20 22  1  0
 20 23  1  0
 24 25  1  0
 24 26  1  0
 26 27  1  0
M  END
$$$$
