F95_47
     RDKit          3D

 27 27  0  0  0  0  0  0  0  0999 V2000
  -19.8359   12.5841   26.2943 S   0  0  0  0  0  0  0  0  0  0  0  0
  -20.3006   12.4340   24.9327 O   0  0  0  0  0  0  0  0  0  0  0  0
  -18.9666   13.6700   26.6913 O   0  0  0  0  0  0  0  0  0  0  0  0
  -19.0549   11.1487   26.7106 N   0  0  0  0  0  0  0  0  0  0  0  0
  -18.5348   11.2311   27.5873 H   0  0  0  0  0  0  0  0  0  0  0  0
  -18.5022   10.7710   25.9371 H   0  0  0  0  0  0  0  0  0  0  0  0
  -21.2248   12.5543   27.3703 C   0  0  0  0  0  0  0  0  0  0  0  0
  -22.5057   12.8386   26.8879 C   0  0  0  0  0  0  0  0  0  0  0  0
  -22.6425   13.0435   25.8542 H   0  0  0  0  0  0  0  0  0  0  0  0
  -23.5974   12.8654   27.7480 C   0  0  0  0  0  0  0  0  0  0  0  0
  -24.5621   13.0874   27.3659 H   0  0  0  0  0  0  0  0  0  0  0  0
  -23.4270   12.6126   29.1078 C   0  0  0  0  0  0  0  0  0  0  0  0
  -24.5955   12.7115   30.0493 C   0  0  0  0  0  0  0  0  0  0  0  0
  -24.2641   12.6353   31.0924 H   0  0  0  0  0  0  0  0  0  0  0  0
  -25.3056   11.8930   29.8794 H   0  0  0  0  0  0  0  0  0  0  0  0
  -25.2870   13.9699   29.8690 N   0  0  0  0  0  0  0  0  0  0  0  0
  -24.7761   14.8135   30.0645 H   0  0  0  0  0  0  0  0  0  0  0  0
  -26.5472   14.0362   29.4623 C   0  0  0  0  0  0  0  0  0  0  0  0
  -27.2026   13.0353   29.2129 O   0  0  0  0  0  0  0  0  0  0  0  0
  -27.1006   15.4251   29.3191 C   0  0  0  0  0  0  0  0  0  0  0  0
  -26.9402   15.9899   30.2419 H   0  0  0  0  0  0  0  0  0  0  0  0
  -26.6018   15.9350   28.4899 H   0  0  0  0  0  0  0  0  0  0  0  0
  -28.1741   15.3755   29.1176 H   0  0  0  0  0  0  0  0  0  0  0  0
  -22.1524   12.3390   29.5977 C   0  0  0  0  0  0  0  0  0  0  0  0
  -22.0099   12.1589   30.6338 H   0  0  0  0  0  0  0  0  0  0  0  0
  -21.0601   12.3132   28.7364 C   0  0  0  0  0  0  0  0  0  0  0  0
  -20.0896   12.1161   29.1208 H   0  0  0  0  0  0  0  0  0  0  0  0
  1  2  2  0
  1  3  2  0
  1  4  1  0
  1  7  1  0
  4  5  1  0
  4  6  1  0
  7  8  1  0
  7 26  2  0
  8  9  1  0
  8 10  2  0
 10 11  1  0
 10 12  1  0
 12 13  1  0
 12 24  2  0
 13 14  1  0
 13 15  1  0
 13 16  1  0
 16 17  1  0
 16 18  1  0
 18 19  2  0
 18 20  1  0
 20 21  1  0
 20 22  1  0
 20 23  1  0
 24 25  1  0
 24 26  1  0
 26 27  1  0
M  END
$$$$
