F741_75
     RDKit          3D

 25 27  0  0  0  0  0  0  0  0999 V2000
  -24.8151   15.3434   32.1556 O   0  0  0  0  0  0  0  0  0  0  0  0
  -24.0348   15.0187   31.2625 C   0  0  0  0  0  0  0  0  0  0  0  0
  -23.2271   15.9748   30.7235 N   0  0  0  0  0  0  0  0  0  0  0  0
  -22.5813   15.6456   29.9872 H   0  0  0  0  0  0  0  0  0  0  0  0
  -23.2198   17.3458   31.1110 C   0  0  0  0  0  0  0  0  0  0  0  0
  -23.0325   17.4851   32.1732 H   0  0  0  0  0  0  0  0  0  0  0  0
  -24.1528   18.3318   30.4617 C   0  0  0  0  0  0  0  0  0  0  0  0
  -24.8008   17.9902   29.6637 H   0  0  0  0  0  0  0  0  0  0  0  0
  -24.5858   19.1030   31.0879 H   0  0  0  0  0  0  0  0  0  0  0  0
  -22.6800   18.3998   30.1845 C   0  0  0  0  0  0  0  0  0  0  0  0
  -22.1126   19.2113   30.6237 H   0  0  0  0  0  0  0  0  0  0  0  0
  -22.3321   18.0920   29.2050 H   0  0  0  0  0  0  0  0  0  0  0  0
  -23.9042   13.6780   30.7410 C   0  0  0  0  0  0  0  0  0  0  0  0
  -23.1113   13.2914   29.6897 C   0  0  0  0  0  0  0  0  0  0  0  0
  -23.3254   11.9380   29.5777 N   0  0  0  0  0  0  0  0  0  0  0  0
  -24.2026   11.4613   30.5006 N   0  0  0  0  0  0  0  0  0  0  0  0
  -24.5411   12.5227   31.1921 C   0  0  0  0  0  0  0  0  0  0  0  0
  -25.2251   12.4917   32.0037 H   0  0  0  0  0  0  0  0  0  0  0  0
  -22.6784   11.1759   28.5969 C   0  0  0  0  0  0  0  0  0  0  0  0
  -22.9077   10.1421   28.5886 H   0  0  0  0  0  0  0  0  0  0  0  0
  -21.8297   11.8560   27.7664 C   0  0  0  0  0  0  0  0  0  0  0  0
  -21.3045   11.3508   26.9985 H   0  0  0  0  0  0  0  0  0  0  0  0
  -21.6324   13.2685   27.9152 C   0  0  0  0  0  0  0  0  0  0  0  0
  -20.9702   13.7735   27.2597 H   0  0  0  0  0  0  0  0  0  0  0  0
  -22.2379   13.9734   28.8319 N   0  0  0  0  0  0  0  0  0  0  0  0
  1  2  2  0
  2  3  1  0
  2 13  1  0
  3  4  1  0
  3  5  1  0
  5  6  1  0
  5  7  1  0
  5 10  1  0
  7  8  1  0
  7  9  1  0
  7 10  1  0
 10 11  1  0
 10 12  1  0
 13 14  2  0
 13 17  1  0
 14 15  1  0
 14 25  1  0
 15 16  1  0
 15 19  1  0
 16 17  2  0
 17 18  1  0
 19 20  1  0
 19 21  2  0
 21 22  1  0
 21 23  1  0
 23 24  1  0
 23 25  2  0
M  END
$$$$
