F709_6
     RDKit          3D

 29 30  0  0  0  0  0  0  0  0999 V2000
  -27.2297   14.5023   27.7776 O   0  0  0  0  0  0  0  0  0  0  0  0
  -26.1762   14.0620   28.2075 C   0  0  0  0  0  0  0  0  0  0  0  0
  -25.9306   12.7520   28.1365 N   0  0  0  0  0  0  0  0  0  0  0  0
  -26.5433   12.1726   28.7206 H   0  0  0  0  0  0  0  0  0  0  0  0
  -25.6412   12.3941   27.2230 H   0  0  0  0  0  0  0  0  0  0  0  0
  -25.1926   14.8386   28.7614 N   0  0  0  0  0  0  0  0  0  0  0  0
  -25.2958   16.2969   28.6574 C   0  0  0  0  0  0  0  0  0  0  0  0
  -26.2183   16.5987   28.1505 H   0  0  0  0  0  0  0  0  0  0  0  0
  -24.4557   16.6328   28.0374 H   0  0  0  0  0  0  0  0  0  0  0  0
  -25.2241   16.9510   30.0370 C   0  0  0  0  0  0  0  0  0  0  0  0
  -26.0890   16.6480   30.6395 H   0  0  0  0  0  0  0  0  0  0  0  0
  -25.2664   18.0389   29.9351 H   0  0  0  0  0  0  0  0  0  0  0  0
  -24.0290   16.5170   30.7762 N   0  0  0  0  0  0  0  0  0  0  0  0
  -23.1692   17.4587   31.3331 C   0  0  0  0  0  0  0  0  0  0  0  0
  -23.2888   18.6157   30.9289 O   0  0  0  0  0  0  0  0  0  0  0  0
  -22.1866   17.0896   32.3278 C   0  0  0  0  0  0  0  0  0  0  0  0
  -22.4721   16.1492   33.2781 O   0  0  0  0  0  0  0  0  0  0  0  0
  -21.4047   16.0470   34.1006 C   0  0  0  0  0  0  0  0  0  0  0  0
  -21.4145   15.3587   34.9066 H   0  0  0  0  0  0  0  0  0  0  0  0
  -20.4447   16.9163   33.7091 C   0  0  0  0  0  0  0  0  0  0  0  0
  -19.5019   17.0546   34.1707 H   0  0  0  0  0  0  0  0  0  0  0  0
  -20.9476   17.6021   32.5778 C   0  0  0  0  0  0  0  0  0  0  0  0
  -20.4740   18.3673   32.0171 H   0  0  0  0  0  0  0  0  0  0  0  0
  -23.8636   15.0594   30.8621 C   0  0  0  0  0  0  0  0  0  0  0  0
  -22.8860   14.7873   31.2640 H   0  0  0  0  0  0  0  0  0  0  0  0
  -24.6366   14.6924   31.5469 H   0  0  0  0  0  0  0  0  0  0  0  0
  -24.0037   14.3742   29.4901 C   0  0  0  0  0  0  0  0  0  0  0  0
  -24.0152   13.2932   29.6454 H   0  0  0  0  0  0  0  0  0  0  0  0
  -23.1375   14.6160   28.8623 H   0  0  0  0  0  0  0  0  0  0  0  0
  1  2  2  0
  2  3  1  0
  2  6  1  0
  3  4  1  0
  3  5  1  0
  6  7  1  0
  6 27  1  0
  7  8  1  0
  7  9  1  0
  7 10  1  0
 10 11  1  0
 10 12  1  0
 10 13  1  0
 13 14  1  0
 13 24  1  0
 14 15  2  0
 14 16  1  0
 16 17  1  0
 16 22  2  0
 17 18  1  0
 18 19  1  0
 18 20  2  0
 20 21  1  0
 20 22  1  0
 22 23  1  0
 24 25  1  0
 24 26  1  0
 24 27  1  0
 27 28  1  0
 27 29  1  0
M  END
$$$$
