F503_56
     RDKit          3D

 29 30  0  0  0  0  0  0  0  0999 V2000
  -25.3326   14.6100   27.8264 F   0  0  0  0  0  0  0  0  0  0  0  0
  -25.7229   13.9338   28.9176 C   0  0  0  0  0  0  0  0  0  0  0  0
  -24.7695   13.5334   29.8565 C   0  0  0  0  0  0  0  0  0  0  0  0
  -23.3075   13.8571   29.6782 C   0  0  0  0  0  0  0  0  0  0  0  0
  -22.9213   14.3662   30.5706 H   0  0  0  0  0  0  0  0  0  0  0  0
  -23.2207   14.5967   28.8707 H   0  0  0  0  0  0  0  0  0  0  0  0
  -22.4404   12.6414   29.3684 C   0  0  0  0  0  0  0  0  0  0  0  0
  -22.4023   11.5784   30.4198 C   0  0  0  0  0  0  0  0  0  0  0  0
  -21.7809   11.6827   31.4579 O   0  0  0  0  0  0  0  0  0  0  0  0
  -23.0936   10.4407   30.1631 N   0  0  0  0  0  0  0  0  0  0  0  0
  -23.5578   10.3659   29.2689 H   0  0  0  0  0  0  0  0  0  0  0  0
  -23.1765    9.3419   31.0917 C   0  0  0  0  0  0  0  0  0  0  0  0
  -22.1809    8.9102   31.2235 H   0  0  0  0  0  0  0  0  0  0  0  0
  -23.5471    9.7047   32.0536 H   0  0  0  0  0  0  0  0  0  0  0  0
  -23.8595    8.5912   30.6864 H   0  0  0  0  0  0  0  0  0  0  0  0
  -21.2158   12.7568   28.4557 C   0  0  0  0  0  0  0  0  0  0  0  0
  -20.3752   12.0935   28.6382 H   0  0  0  0  0  0  0  0  0  0  0  0
  -20.9184   13.7197   28.0586 H   0  0  0  0  0  0  0  0  0  0  0  0
  -22.4690   12.1528   27.9184 C   0  0  0  0  0  0  0  0  0  0  0  0
  -22.4811   11.0839   27.7351 H   0  0  0  0  0  0  0  0  0  0  0  0
  -23.0262   12.7224   27.1832 H   0  0  0  0  0  0  0  0  0  0  0  0
  -25.2104   12.8216   30.9726 C   0  0  0  0  0  0  0  0  0  0  0  0
  -24.5173   12.4968   31.7056 H   0  0  0  0  0  0  0  0  0  0  0  0
  -26.5651   12.5273   31.1324 C   0  0  0  0  0  0  0  0  0  0  0  0
  -26.8891   11.9850   31.9858 H   0  0  0  0  0  0  0  0  0  0  0  0
  -27.4977   12.9400   30.1815 C   0  0  0  0  0  0  0  0  0  0  0  0
  -28.5256   12.7120   30.3109 H   0  0  0  0  0  0  0  0  0  0  0  0
  -27.0752   13.6497   29.0622 C   0  0  0  0  0  0  0  0  0  0  0  0
  -27.7679   13.9710   28.3285 H   0  0  0  0  0  0  0  0  0  0  0  0
  1  2  1  0
  2  3  1  0
  2 28  2  0
  3  4  1  0
  3 22  2  0
  4  5  1  0
  4  6  1  0
  4  7  1  0
  7  8  1  0
  7 16  1  0
  7 19  1  0
  8  9  2  0
  8 10  1  0
 10 11  1  0
 10 12  1  0
 12 13  1  0
 12 14  1  0
 12 15  1  0
 16 17  1  0
 16 18  1  0
 16 19  1  0
 19 20  1  0
 19 21  1  0
 22 23  1  0
 22 24  1  0
 24 25  1  0
 24 26  2  0
 26 27  1  0
 26 28  1  0
 28 29  1  0
M  END
$$$$
