F393_88
     RDKit          3D

 24 24  0  0  0  0  0  0  0  0999 V2000
  -23.2045   13.2222   31.6354 O   0  0  0  0  0  0  0  0  0  0  0  0
  -23.9526   12.9183   30.7147 C   0  0  0  0  0  0  0  0  0  0  0  0
  -23.9332   11.7163   30.0772 O   0  0  0  0  0  0  0  0  0  0  0  0
  -22.9535   10.7916   30.5665 C   0  0  0  0  0  0  0  0  0  0  0  0
  -22.8265    9.9741   29.8488 H   0  0  0  0  0  0  0  0  0  0  0  0
  -21.9988   11.3089   30.7116 H   0  0  0  0  0  0  0  0  0  0  0  0
  -23.4446   10.2397   31.8905 C   0  0  0  0  0  0  0  0  0  0  0  0
  -24.4116    9.7404   31.7659 H   0  0  0  0  0  0  0  0  0  0  0  0
  -23.5946   11.0496   32.6125 H   0  0  0  0  0  0  0  0  0  0  0  0
  -22.7285    9.5245   32.3053 H   0  0  0  0  0  0  0  0  0  0  0  0
  -24.9046   13.7749   30.2255 N   0  0  0  0  0  0  0  0  0  0  0  0
  -25.0874   15.1082   30.7977 C   0  0  0  0  0  0  0  0  0  0  0  0
  -26.0460   15.0880   31.3291 H   0  0  0  0  0  0  0  0  0  0  0  0
  -24.3016   15.3439   31.5226 H   0  0  0  0  0  0  0  0  0  0  0  0
  -25.1274   16.1649   29.6937 C   0  0  0  0  0  0  0  0  0  0  0  0
  -24.1536   16.2564   29.1972 H   0  0  0  0  0  0  0  0  0  0  0  0
  -25.3821   17.1416   30.1177 H   0  0  0  0  0  0  0  0  0  0  0  0
  -26.1229   15.8410   28.7121 O   0  0  0  0  0  0  0  0  0  0  0  0
  -25.8379   14.5761   28.0957 C   0  0  0  0  0  0  0  0  0  0  0  0
  -26.6137   14.3870   27.3471 H   0  0  0  0  0  0  0  0  0  0  0  0
  -24.8755   14.6437   27.5736 H   0  0  0  0  0  0  0  0  0  0  0  0
  -25.8251   13.4522   29.1330 C   0  0  0  0  0  0  0  0  0  0  0  0
  -25.5740   12.5017   28.6543 H   0  0  0  0  0  0  0  0  0  0  0  0
  -26.8179   13.3519   29.5863 H   0  0  0  0  0  0  0  0  0  0  0  0
  1  2  2  0
  2  3  1  0
  2 11  1  0
  3  4  1  0
  4  5  1  0
  4  6  1  0
  4  7  1  0
  7  8  1  0
  7  9  1  0
  7 10  1  0
 11 12  1  0
 11 22  1  0
 12 13  1  0
 12 14  1  0
 12 15  1  0
 15 16  1  0
 15 17  1  0
 15 18  1  0
 18 19  1  0
 19 20  1  0
 19 21  1  0
 19 22  1  0
 22 23  1  0
 22 24  1  0
M  END
$$$$
