F95_30
     RDKit          3D

 27 27  0  0  0  0  0  0  0  0999 V2000
  -19.3480   12.1710   27.1336 S   0  0  0  0  0  0  0  0  0  0  0  0
  -18.9675   13.2892   26.2986 O   0  0  0  0  0  0  0  0  0  0  0  0
  -18.5722   11.7805   28.2905 O   0  0  0  0  0  0  0  0  0  0  0  0
  -19.4541   10.8195   26.1309 N   0  0  0  0  0  0  0  0  0  0  0  0
  -18.6838   10.7739   25.4596 H   0  0  0  0  0  0  0  0  0  0  0  0
  -20.3791   10.7265   25.7040 H   0  0  0  0  0  0  0  0  0  0  0  0
  -21.0225   12.3781   27.6240 C   0  0  0  0  0  0  0  0  0  0  0  0
  -21.9987   12.7388   26.6906 C   0  0  0  0  0  0  0  0  0  0  0  0
  -21.7286   12.8576   25.6697 H   0  0  0  0  0  0  0  0  0  0  0  0
  -23.3138   12.9527   27.0868 C   0  0  0  0  0  0  0  0  0  0  0  0
  -24.0413   13.2305   26.3659 H   0  0  0  0  0  0  0  0  0  0  0  0
  -23.6758   12.8140   28.4253 C   0  0  0  0  0  0  0  0  0  0  0  0
  -25.0822   13.1145   28.8651 C   0  0  0  0  0  0  0  0  0  0  0  0
  -25.3344   12.5565   29.7754 H   0  0  0  0  0  0  0  0  0  0  0  0
  -25.8053   12.8150   28.0965 H   0  0  0  0  0  0  0  0  0  0  0  0
  -25.2411   14.5293   29.1246 N   0  0  0  0  0  0  0  0  0  0  0  0
  -24.6436   15.1640   28.6236 H   0  0  0  0  0  0  0  0  0  0  0  0
  -26.1335   14.9978   29.9860 C   0  0  0  0  0  0  0  0  0  0  0  0
  -26.8791   14.2609   30.6139 O   0  0  0  0  0  0  0  0  0  0  0  0
  -26.1679   16.4933   30.1211 C   0  0  0  0  0  0  0  0  0  0  0  0
  -25.1636   16.8746   30.3271 H   0  0  0  0  0  0  0  0  0  0  0  0
  -26.5416   16.9369   29.1938 H   0  0  0  0  0  0  0  0  0  0  0  0
  -26.8283   16.7741   30.9461 H   0  0  0  0  0  0  0  0  0  0  0  0
  -22.7070   12.4651   29.3628 C   0  0  0  0  0  0  0  0  0  0  0  0
  -22.9695   12.3707   30.3868 H   0  0  0  0  0  0  0  0  0  0  0  0
  -21.3907   12.2521   28.9657 C   0  0  0  0  0  0  0  0  0  0  0  0
  -20.6557   11.9987   29.6896 H   0  0  0  0  0  0  0  0  0  0  0  0
  1  2  2  0
  1  3  2  0
  1  4  1  0
  1  7  1  0
  4  5  1  0
  4  6  1  0
  7  8  1  0
  7 26  2  0
  8  9  1  0
  8 10  2  0
 10 11  1  0
 10 12  1  0
 12 13  1  0
 12 24  2  0
 13 14  1  0
 13 15  1  0
 13 16  1  0
 16 17  1  0
 16 18  1  0
 18 19  2  0
 18 20  1  0
 20 21  1  0
 20 22  1  0
 20 23  1  0
 24 25  1  0
 24 26  1  0
 26 27  1  0
M  END
$$$$
