F374_84
     RDKit          3D

 18 18  0  0  0  0  0  0  0  0999 V2000
  -25.8745   12.7027   30.8322 O   0  0  0  0  0  0  0  0  0  0  0  0
  -25.0176   12.4251   29.9949 C   0  0  0  0  0  0  0  0  0  0  0  0
  -23.9849   11.6225   30.3962 N   0  0  0  0  0  0  0  0  0  0  0  0
  -23.3078   11.3472   29.6708 H   0  0  0  0  0  0  0  0  0  0  0  0
  -23.8265   11.1432   31.7531 C   0  0  0  0  0  0  0  0  0  0  0  0
  -23.8434   12.0067   32.4274 H   0  0  0  0  0  0  0  0  0  0  0  0
  -24.6888   10.5122   31.9908 H   0  0  0  0  0  0  0  0  0  0  0  0
  -22.5370   10.3645   31.9243 C   0  0  0  0  0  0  0  0  0  0  0  0
  -22.4379   10.0111   32.9550 H   0  0  0  0  0  0  0  0  0  0  0  0
  -22.5138    9.4951   31.2590 H   0  0  0  0  0  0  0  0  0  0  0  0
  -21.6691   10.9892   31.6886 H   0  0  0  0  0  0  0  0  0  0  0  0
  -25.0116   12.8464   28.6157 C   0  0  0  0  0  0  0  0  0  0  0  0
  -25.8179   13.8341   28.1289 N   0  0  0  0  0  0  0  0  0  0  0  0
  -25.5604   13.9615   26.8515 N   0  0  0  0  0  0  0  0  0  0  0  0
  -24.6076   13.0720   26.5343 N   0  0  0  0  0  0  0  0  0  0  0  0
  -24.2238   12.9716   25.5761 H   0  0  0  0  0  0  0  0  0  0  0  0
  -24.2494   12.3702   27.6004 C   0  0  0  0  0  0  0  0  0  0  0  0
  -23.5094   11.6124   27.5767 H   0  0  0  0  0  0  0  0  0  0  0  0
  1  2  2  0
  2  3  1  0
  2 12  1  0
  3  4  1  0
  3  5  1  0
  5  6  1  0
  5  7  1  0
  5  8  1  0
  8  9  1  0
  8 10  1  0
  8 11  1  0
 12 13  1  0
 12 17  2  0
 13 14  2  0
 14 15  1  0
 15 16  1  0
 15 17  1  0
 17 18  1  0
M  END
$$$$
