F309_77
     RDKit          3D

 14 14  0  0  0  0  0  0  0  0999 V2000
  -25.4992   14.6436   26.9622 O   0  0  0  0  0  0  0  0  0  0  0  0
  -25.1648   14.9642   28.1364 C   0  0  0  0  0  0  0  0  0  0  0  0
  -25.4474   16.1183   28.5753 O   0  0  0  0  0  0  0  0  0  0  0  0
  -24.4595   14.0085   28.9807 C   0  0  0  0  0  0  0  0  0  0  0  0
  -24.0071   12.7481   28.6271 C   0  0  0  0  0  0  0  0  0  0  0  0
  -24.1690   12.1282   27.2699 C   0  0  0  0  0  0  0  0  0  0  0  0
  -23.7321   11.1248   27.2382 H   0  0  0  0  0  0  0  0  0  0  0  0
  -23.6644   12.7299   26.5073 H   0  0  0  0  0  0  0  0  0  0  0  0
  -25.2294   12.0314   27.0137 H   0  0  0  0  0  0  0  0  0  0  0  0
  -23.3619   12.0789   29.6796 C   0  0  0  0  0  0  0  0  0  0  0  0
  -22.9505   11.1070   29.5921 H   0  0  0  0  0  0  0  0  0  0  0  0
  -23.3167   12.8092   30.8313 C   0  0  0  0  0  0  0  0  0  0  0  0
  -22.8878   12.5269   31.7576 H   0  0  0  0  0  0  0  0  0  0  0  0
  -24.0712   14.3448   30.6445 S   0  0  0  0  0  0  0  0  0  0  0  0
  1  2  1  0
  2  3  2  0
  2  4  1  0
  4  5  2  0
  4 14  1  0
  5  6  1  0
  5 10  1  0
  6  7  1  0
  6  8  1  0
  6  9  1  0
 10 11  1  0
 10 12  2  0
 12 13  1  0
 12 14  1  0
M  END
$$$$
