F709_83
     RDKit          3D

 29 30  0  0  0  0  0  0  0  0999 V2000
  -16.6844   12.8840   25.1200 O   0  0  0  0  0  0  0  0  0  0  0  0
  -17.8434   12.7335   24.7701 C   0  0  0  0  0  0  0  0  0  0  0  0
  -18.1754   12.9165   23.4903 N   0  0  0  0  0  0  0  0  0  0  0  0
  -18.6390   13.8107   23.2954 H   0  0  0  0  0  0  0  0  0  0  0  0
  -17.5273   12.5380   22.7954 H   0  0  0  0  0  0  0  0  0  0  0  0
  -18.8559   12.3662   25.6170 N   0  0  0  0  0  0  0  0  0  0  0  0
  -18.5218   11.9243   26.9739 C   0  0  0  0  0  0  0  0  0  0  0  0
  -17.4443   11.9806   27.1604 H   0  0  0  0  0  0  0  0  0  0  0  0
  -18.8128   10.8694   27.0467 H   0  0  0  0  0  0  0  0  0  0  0  0
  -19.2727   12.7490   28.0191 C   0  0  0  0  0  0  0  0  0  0  0  0
  -18.9474   13.7953   27.9737 H   0  0  0  0  0  0  0  0  0  0  0  0
  -19.0382   12.3808   29.0217 H   0  0  0  0  0  0  0  0  0  0  0  0
  -20.7210   12.7517   27.7626 N   0  0  0  0  0  0  0  0  0  0  0  0
  -21.6125   12.4102   28.7748 C   0  0  0  0  0  0  0  0  0  0  0  0
  -21.1352   11.8354   29.7537 O   0  0  0  0  0  0  0  0  0  0  0  0
  -23.0230   12.7119   28.6726 C   0  0  0  0  0  0  0  0  0  0  0  0
  -23.5520   13.8057   29.2996 O   0  0  0  0  0  0  0  0  0  0  0  0
  -24.8858   13.8089   29.0827 C   0  0  0  0  0  0  0  0  0  0  0  0
  -25.4898   14.5859   29.4764 H   0  0  0  0  0  0  0  0  0  0  0  0
  -25.2284   12.7287   28.3436 C   0  0  0  0  0  0  0  0  0  0  0  0
  -26.2058   12.4745   28.0253 H   0  0  0  0  0  0  0  0  0  0  0  0
  -24.0363   12.0094   28.0894 C   0  0  0  0  0  0  0  0  0  0  0  0
  -23.9260   11.1012   27.5535 H   0  0  0  0  0  0  0  0  0  0  0  0
  -21.0954   13.1437   26.3968 C   0  0  0  0  0  0  0  0  0  0  0  0
  -22.1548   12.9669   26.2024 H   0  0  0  0  0  0  0  0  0  0  0  0
  -20.8997   14.2186   26.3104 H   0  0  0  0  0  0  0  0  0  0  0  0
  -20.2971   12.3732   25.3288 C   0  0  0  0  0  0  0  0  0  0  0  0
  -20.5171   12.8112   24.3528 H   0  0  0  0  0  0  0  0  0  0  0  0
  -20.6173   11.3244   25.3082 H   0  0  0  0  0  0  0  0  0  0  0  0
  1  2  2  0
  2  3  1  0
  2  6  1  0
  3  4  1  0
  3  5  1  0
  6  7  1  0
  6 27  1  0
  7  8  1  0
  7  9  1  0
  7 10  1  0
 10 11  1  0
 10 12  1  0
 10 13  1  0
 13 14  1  0
 13 24  1  0
 14 15  2  0
 14 16  1  0
 16 17  1  0
 16 22  2  0
 17 18  1  0
 18 19  1  0
 18 20  2  0
 20 21  1  0
 20 22  1  0
 22 23  1  0
 24 25  1  0
 24 26  1  0
 24 27  1  0
 27 28  1  0
 27 29  1  0
M  END
$$$$
