F600_73
     RDKit          3D

 16 16  0  0  0  0  0  0  0  0999 V2000
  -26.4286   14.1903   29.5150 O   0  0  0  0  0  0  0  0  0  0  0  0
  -25.7604   14.9851   28.5352 C   0  0  0  0  0  0  0  0  0  0  0  0
  -26.4916   15.3732   27.8155 H   0  0  0  0  0  0  0  0  0  0  0  0
  -25.2555   15.8303   29.0166 H   0  0  0  0  0  0  0  0  0  0  0  0
  -24.7772   14.1092   27.8363 C   0  0  0  0  0  0  0  0  0  0  0  0
  -23.2601   13.7463   28.5443 S   0  0  0  0  0  0  0  0  0  0  0  0
  -22.9396   12.8380   27.1423 C   0  0  0  0  0  0  0  0  0  0  0  0
  -21.7708   12.1890   27.0075 N   0  0  0  0  0  0  0  0  0  0  0  0
  -21.0532   12.2135   27.7211 H   0  0  0  0  0  0  0  0  0  0  0  0
  -21.5801   11.6487   26.1722 H   0  0  0  0  0  0  0  0  0  0  0  0
  -23.8781   12.8275   26.2482 N   0  0  0  0  0  0  0  0  0  0  0  0
  -24.9576   13.5788   26.6643 N   0  0  0  0  0  0  0  0  0  0  0  0
  -27.1005   14.9962   30.4727 C   0  0  0  0  0  0  0  0  0  0  0  0
  -27.5912   14.3368   31.1941 H   0  0  0  0  0  0  0  0  0  0  0  0
  -27.8636   15.6122   29.9876 H   0  0  0  0  0  0  0  0  0  0  0  0
  -26.3873   15.6301   31.0080 H   0  0  0  0  0  0  0  0  0  0  0  0
  1  2  1  0
  1 13  1  0
  2  3  1  0
  2  4  1  0
  2  5  1  0
  5  6  1  0
  5 12  2  0
  6  7  1  0
  7  8  1  0
  7 11  2  0
  8  9  1  0
  8 10  1  0
 11 12  1  0
 13 14  1  0
 13 15  1  0
 13 16  1  0
M  END
$$$$
