F763_38
     RDKit          3D

 19 19  0  0  0  0  0  0  0  0999 V2000
  -21.8081   11.6956   27.6353 Br  0  0  0  0  0  0  0  0  0  0  0  0
  -23.4387   12.4564   28.1454 C   0  0  0  0  0  0  0  0  0  0  0  0
  -24.2126   13.1233   27.2456 C   0  0  0  0  0  0  0  0  0  0  0  0
  -23.9173   13.2326   26.2368 H   0  0  0  0  0  0  0  0  0  0  0  0
  -25.4558   13.7047   27.6390 C   0  0  0  0  0  0  0  0  0  0  0  0
  -26.1956   14.3398   26.8764 O   0  0  0  0  0  0  0  0  0  0  0  0
  -25.8539   13.5529   28.9710 N   0  0  0  0  0  0  0  0  0  0  0  0
  -27.1246   14.1259   29.4185 C   0  0  0  0  0  0  0  0  0  0  0  0
  -27.8707   14.0215   28.6212 H   0  0  0  0  0  0  0  0  0  0  0  0
  -27.5179   13.5494   30.2660 H   0  0  0  0  0  0  0  0  0  0  0  0
  -26.9924   15.6003   29.7958 C   0  0  0  0  0  0  0  0  0  0  0  0
  -27.9493   16.0234   30.1183 H   0  0  0  0  0  0  0  0  0  0  0  0
  -26.6444   16.1851   28.9378 H   0  0  0  0  0  0  0  0  0  0  0  0
  -26.0475   15.7595   30.8477 O   0  0  0  0  0  0  0  0  0  0  0  0
  -25.1890   15.4389   30.5177 H   0  0  0  0  0  0  0  0  0  0  0  0
  -25.0598   12.8763   29.8903 C   0  0  0  0  0  0  0  0  0  0  0  0
  -25.4408   12.8202   30.8808 H   0  0  0  0  0  0  0  0  0  0  0  0
  -23.8728   12.3331   29.4952 C   0  0  0  0  0  0  0  0  0  0  0  0
  -23.2611   11.8148   30.1884 H   0  0  0  0  0  0  0  0  0  0  0  0
  1  2  1  0
  2  3  2  0
  2 18  1  0
  3  4  1  0
  3  5  1  0
  5  6  2  0
  5  7  1  0
  7  8  1  0
  7 16  1  0
  8  9  1  0
  8 10  1  0
  8 11  1  0
 11 12  1  0
 11 13  1  0
 11 14  1  0
 14 15  1  0
 16 17  1  0
 16 18  2  0
 18 19  1  0
M  END
$$$$
