F13_69
     RDKit          3D

 16 16  0  0  0  0  0  0  0  0999 V2000
  -24.6767   17.3616   30.1271 Br  0  0  0  0  0  0  0  0  0  0  0  0
  -24.6982   15.8531   29.0270 C   0  0  0  0  0  0  0  0  0  0  0  0
  -24.0520   14.6829   29.2097 C   0  0  0  0  0  0  0  0  0  0  0  0
  -23.4125   14.3427   29.9815 H   0  0  0  0  0  0  0  0  0  0  0  0
  -24.3843   13.9117   28.1488 N   0  0  0  0  0  0  0  0  0  0  0  0
  -23.9488   12.5608   27.8540 C   0  0  0  0  0  0  0  0  0  0  0  0
  -24.1443   11.9597   28.7489 H   0  0  0  0  0  0  0  0  0  0  0  0
  -24.5774   12.1875   27.0379 H   0  0  0  0  0  0  0  0  0  0  0  0
  -22.4746   12.5090   27.4854 C   0  0  0  0  0  0  0  0  0  0  0  0
  -22.2877   13.1455   26.6158 H   0  0  0  0  0  0  0  0  0  0  0  0
  -22.1449   11.4902   27.2560 H   0  0  0  0  0  0  0  0  0  0  0  0
  -21.6898   13.0132   28.5619 O   0  0  0  0  0  0  0  0  0  0  0  0
  -21.8329   12.4228   29.3224 H   0  0  0  0  0  0  0  0  0  0  0  0
  -25.2290   14.5558   27.2977 N   0  0  0  0  0  0  0  0  0  0  0  0
  -25.4105   15.7324   27.8389 C   0  0  0  0  0  0  0  0  0  0  0  0
  -26.0253   16.4827   27.4129 H   0  0  0  0  0  0  0  0  0  0  0  0
  1  2  1  0
  2  3  2  0
  2 15  1  0
  3  4  1  0
  3  5  1  0
  5  6  1  0
  5 14  1  0
  6  7  1  0
  6  8  1  0
  6  9  1  0
  9 10  1  0
  9 11  1  0
  9 12  1  0
 12 13  1  0
 14 15  2  0
 15 16  1  0
M  END
$$$$
