F600_23
     RDKit          3D

 16 16  0  0  0  0  0  0  0  0999 V2000
  -24.5646   17.2702   28.5540 O   0  0  0  0  0  0  0  0  0  0  0  0
  -24.3755   16.0937   29.3403 C   0  0  0  0  0  0  0  0  0  0  0  0
  -23.3370   16.0483   29.6906 H   0  0  0  0  0  0  0  0  0  0  0  0
  -25.0415   16.1113   30.2105 H   0  0  0  0  0  0  0  0  0  0  0  0
  -24.6694   14.9177   28.4724 C   0  0  0  0  0  0  0  0  0  0  0  0
  -23.9231   13.4025   28.7579 S   0  0  0  0  0  0  0  0  0  0  0  0
  -24.7863   12.8390   27.4049 C   0  0  0  0  0  0  0  0  0  0  0  0
  -24.6626   11.5620   27.0056 N   0  0  0  0  0  0  0  0  0  0  0  0
  -24.0659   10.9005   27.4862 H   0  0  0  0  0  0  0  0  0  0  0  0
  -25.1764   11.2270   26.1994 H   0  0  0  0  0  0  0  0  0  0  0  0
  -25.5406   13.7106   26.8119 N   0  0  0  0  0  0  0  0  0  0  0  0
  -25.4664   14.9331   27.4467 N   0  0  0  0  0  0  0  0  0  0  0  0
  -24.2682   18.4465   29.2932 C   0  0  0  0  0  0  0  0  0  0  0  0
  -24.4303   19.3113   28.6438 H   0  0  0  0  0  0  0  0  0  0  0  0
  -23.2228   18.4434   29.6159 H   0  0  0  0  0  0  0  0  0  0  0  0
  -24.9310   18.5317   30.1597 H   0  0  0  0  0  0  0  0  0  0  0  0
  1  2  1  0
  1 13  1  0
  2  3  1  0
  2  4  1  0
  2  5  1  0
  5  6  1  0
  5 12  2  0
  6  7  1  0
  7  8  1  0
  7 11  2  0
  8  9  1  0
  8 10  1  0
 11 12  1  0
 13 14  1  0
 13 15  1  0
 13 16  1  0
M  END
$$$$
