F618_51
     RDKit          3D

 26 26  0  0  0  0  0  0  0  0999 V2000
  -23.9184   13.5707   32.7173 F   0  0  0  0  0  0  0  0  0  0  0  0
  -23.7755   14.6603   31.9467 C   0  0  0  0  0  0  0  0  0  0  0  0
  -24.2822   14.7212   30.6355 C   0  0  0  0  0  0  0  0  0  0  0  0
  -24.9945   13.6553   30.0629 N   0  0  0  0  0  0  0  0  0  0  0  0
  -24.5794   13.1959   28.7164 C   0  0  0  0  0  0  0  0  0  0  0  0
  -23.0450   13.1616   28.5904 C   0  0  0  0  0  0  0  0  0  0  0  0
  -22.6044   12.6143   29.4307 H   0  0  0  0  0  0  0  0  0  0  0  0
  -22.6181   14.1694   28.5935 H   0  0  0  0  0  0  0  0  0  0  0  0
  -22.6291   12.5208   27.3861 O   0  0  0  0  0  0  0  0  0  0  0  0
  -22.9295   13.1117   26.6724 H   0  0  0  0  0  0  0  0  0  0  0  0
  -25.2107   14.0290   27.5942 C   0  0  0  0  0  0  0  0  0  0  0  0
  -25.0335   13.5491   26.6250 H   0  0  0  0  0  0  0  0  0  0  0  0
  -24.7909   15.0372   27.5302 H   0  0  0  0  0  0  0  0  0  0  0  0
  -26.2931   14.1153   27.7308 H   0  0  0  0  0  0  0  0  0  0  0  0
  -26.0948   13.0245   30.7773 C   0  0  0  0  0  0  0  0  0  0  0  0
  -25.7177   12.3722   31.5718 H   0  0  0  0  0  0  0  0  0  0  0  0
  -26.7231   12.4147   30.1214 H   0  0  0  0  0  0  0  0  0  0  0  0
  -26.7711   13.7735   31.2063 H   0  0  0  0  0  0  0  0  0  0  0  0
  -24.1162   15.8137   29.8742 N   0  0  0  0  0  0  0  0  0  0  0  0
  -23.4399   16.8523   30.3808 C   0  0  0  0  0  0  0  0  0  0  0  0
  -23.3138   17.7049   29.7641 H   0  0  0  0  0  0  0  0  0  0  0  0
  -22.9071   16.8439   31.6713 C   0  0  0  0  0  0  0  0  0  0  0  0
  -22.3786   17.6879   32.0309 H   0  0  0  0  0  0  0  0  0  0  0  0
  -23.0753   15.7244   32.4823 C   0  0  0  0  0  0  0  0  0  0  0  0
  -22.6880   15.6828   33.4672 H   0  0  0  0  0  0  0  0  0  0  0  0
  -24.9533   12.1774   28.5451 H   0  0  0  0  0  0  0  0  0  0  0  0
  1  2  1  0
  2  3  1  0
  2 24  2  0
  3  4  1  0
  3 19  2  0
  4  5  1  0
  4 15  1  0
  5  6  1  0
  5 11  1  0
  5 26  1  0
  6  7  1  0
  6  8  1  0
  6  9  1  0
  9 10  1  0
 11 12  1  0
 11 13  1  0
 11 14  1  0
 15 16  1  0
 15 17  1  0
 15 18  1  0
 19 20  1  0
 20 21  1  0
 20 22  2  0
 22 23  1  0
 22 24  1  0
 24 25  1  0
M  END
$$$$
