F369_10
     RDKit          3D

 32 33  0  0  0  0  0  0  0  0999 V2000
  -20.9427   14.3257   28.0930 O   0  0  0  0  0  0  0  0  0  0  0  0
  -20.8482   13.3223   27.4139 C   0  0  0  0  0  0  0  0  0  0  0  0
  -21.9341   12.5236   27.1921 N   0  0  0  0  0  0  0  0  0  0  0  0
  -21.7364   11.7039   26.6096 H   0  0  0  0  0  0  0  0  0  0  0  0
  -23.2311   12.6864   27.6544 C   0  0  0  0  0  0  0  0  0  0  0  0
  -23.7182   13.6960   28.4050 C   0  0  0  0  0  0  0  0  0  0  0  0
  -23.2616   14.5654   28.7992 H   0  0  0  0  0  0  0  0  0  0  0  0
  -25.0253   13.3929   28.5909 N   0  0  0  0  0  0  0  0  0  0  0  0
  -26.0111   14.1463   29.3367 C   0  0  0  0  0  0  0  0  0  0  0  0
  -26.8772   13.4942   29.4923 H   0  0  0  0  0  0  0  0  0  0  0  0
  -25.5828   14.3782   30.3181 H   0  0  0  0  0  0  0  0  0  0  0  0
  -26.4184   15.4240   28.6246 C   0  0  0  0  0  0  0  0  0  0  0  0
  -26.8617   15.2080   27.6468 H   0  0  0  0  0  0  0  0  0  0  0  0
  -25.5545   16.0776   28.4618 H   0  0  0  0  0  0  0  0  0  0  0  0
  -27.1545   15.9727   29.2195 H   0  0  0  0  0  0  0  0  0  0  0  0
  -25.3776   12.2255   27.9762 N   0  0  0  0  0  0  0  0  0  0  0  0
  -24.2772   11.8014   27.4098 C   0  0  0  0  0  0  0  0  0  0  0  0
  -24.2165   10.9065   26.8468 H   0  0  0  0  0  0  0  0  0  0  0  0
  -19.5338   12.8812   26.7874 C   0  0  0  0  0  0  0  0  0  0  0  0
  -19.1311   12.0825   27.4229 H   0  0  0  0  0  0  0  0  0  0  0  0
  -19.7102   12.3578   25.3559 C   0  0  0  0  0  0  0  0  0  0  0  0
  -19.7123   11.2629   25.3270 H   0  0  0  0  0  0  0  0  0  0  0  0
  -20.6521   12.6913   24.9070 H   0  0  0  0  0  0  0  0  0  0  0  0
  -18.5311   12.9236   24.5771 C   0  0  0  0  0  0  0  0  0  0  0  0
  -17.6490   12.2868   24.7126 H   0  0  0  0  0  0  0  0  0  0  0  0
  -18.7375   12.9977   23.5058 H   0  0  0  0  0  0  0  0  0  0  0  0
  -18.3007   14.2807   25.2180 C   0  0  0  0  0  0  0  0  0  0  0  0
  -19.0440   15.0011   24.8595 H   0  0  0  0  0  0  0  0  0  0  0  0
  -17.3069   14.6804   24.9981 H   0  0  0  0  0  0  0  0  0  0  0  0
  -18.4961   14.0108   26.7049 C   0  0  0  0  0  0  0  0  0  0  0  0
  -18.7810   14.9178   27.2473 H   0  0  0  0  0  0  0  0  0  0  0  0
  -17.5486   13.6602   27.1344 H   0  0  0  0  0  0  0  0  0  0  0  0
  1  2  2  0
  2  3  1  0
  2 19  1  0
  3  4  1  0
  3  5  1  0
  5  6  2  0
  5 17  1  0
  6  7  1  0
  6  8  1  0
  8  9  1  0
  8 16  1  0
  9 10  1  0
  9 11  1  0
  9 12  1  0
 12 13  1  0
 12 14  1  0
 12 15  1  0
 16 17  2  0
 17 18  1  0
 19 20  1  0
 19 21  1  0
 19 30  1  0
 21 22  1  0
 21 23  1  0
 21 24  1  0
 24 25  1  0
 24 26  1  0
 24 27  1  0
 27 28  1  0
 27 29  1  0
 27 30  1  0
 30 31  1  0
 30 32  1  0
M  END
$$$$
