F763_58
     RDKit          3D

 19 19  0  0  0  0  0  0  0  0999 V2000
  -24.0995   13.8266   33.7910 Br  0  0  0  0  0  0  0  0  0  0  0  0
  -23.6054   13.2551   32.0801 C   0  0  0  0  0  0  0  0  0  0  0  0
  -23.6991   14.0896   31.0085 C   0  0  0  0  0  0  0  0  0  0  0  0
  -24.0533   15.0802   31.1090 H   0  0  0  0  0  0  0  0  0  0  0  0
  -23.3231   13.6493   29.7035 C   0  0  0  0  0  0  0  0  0  0  0  0
  -23.4029   14.3502   28.6863 O   0  0  0  0  0  0  0  0  0  0  0  0
  -22.8445   12.3422   29.5692 N   0  0  0  0  0  0  0  0  0  0  0  0
  -22.4401   11.8491   28.2514 C   0  0  0  0  0  0  0  0  0  0  0  0
  -22.4434   10.7522   28.2575 H   0  0  0  0  0  0  0  0  0  0  0  0
  -23.1833   12.1408   27.4978 H   0  0  0  0  0  0  0  0  0  0  0  0
  -21.0531   12.3472   27.8490 C   0  0  0  0  0  0  0  0  0  0  0  0
  -20.3416   12.2785   28.6783 H   0  0  0  0  0  0  0  0  0  0  0  0
  -21.0986   13.3963   27.5382 H   0  0  0  0  0  0  0  0  0  0  0  0
  -20.5517   11.5869   26.7559 O   0  0  0  0  0  0  0  0  0  0  0  0
  -21.2044   11.6492   26.0354 H   0  0  0  0  0  0  0  0  0  0  0  0
  -22.7545   11.4892   30.6637 C   0  0  0  0  0  0  0  0  0  0  0  0
  -22.3882   10.5122   30.4623 H   0  0  0  0  0  0  0  0  0  0  0  0
  -23.1243   11.9277   31.9010 C   0  0  0  0  0  0  0  0  0  0  0  0
  -23.0585   11.2853   32.7414 H   0  0  0  0  0  0  0  0  0  0  0  0
  1  2  1  0
  2  3  2  0
  2 18  1  0
  3  4  1  0
  3  5  1  0
  5  6  2  0
  5  7  1  0
  7  8  1  0
  7 16  1  0
  8  9  1  0
  8 10  1  0
  8 11  1  0
 11 12  1  0
 11 13  1  0
 11 14  1  0
 14 15  1  0
 16 17  1  0
 16 18  2  0
 18 19  1  0
M  END
$$$$
