F760_28
     RDKit          3D

 17 18  0  0  0  0  0  0  0  0999 V2000
  -22.3571   10.8245   31.9423 Br  0  0  0  0  0  0  0  0  0  0  0  0
  -23.1077   11.8111   30.5144 C   0  0  0  0  0  0  0  0  0  0  0  0
  -24.4532   12.1695   30.5494 C   0  0  0  0  0  0  0  0  0  0  0  0
  -25.0727   11.8991   31.3636 H   0  0  0  0  0  0  0  0  0  0  0  0
  -24.9579   12.8924   29.4768 C   0  0  0  0  0  0  0  0  0  0  0  0
  -26.2542   13.3521   29.2977 N   0  0  0  0  0  0  0  0  0  0  0  0
  -27.0525   13.2302   29.9324 H   0  0  0  0  0  0  0  0  0  0  0  0
  -26.3766   14.0215   28.1271 C   0  0  0  0  0  0  0  0  0  0  0  0
  -27.4361   14.4980   27.7935 O   0  0  0  0  0  0  0  0  0  0  0  0
  -25.0255   14.0309   27.4159 C   0  0  0  0  0  0  0  0  0  0  0  0
  -25.1058   13.5118   26.4582 H   0  0  0  0  0  0  0  0  0  0  0  0
  -24.6741   15.0590   27.3011 H   0  0  0  0  0  0  0  0  0  0  0  0
  -24.1882   13.2658   28.3935 C   0  0  0  0  0  0  0  0  0  0  0  0
  -22.8443   12.9098   28.3592 C   0  0  0  0  0  0  0  0  0  0  0  0
  -22.2341   13.1871   27.5369 H   0  0  0  0  0  0  0  0  0  0  0  0
  -22.3063   12.1810   29.4234 C   0  0  0  0  0  0  0  0  0  0  0  0
  -21.2839   11.9041   29.4086 H   0  0  0  0  0  0  0  0  0  0  0  0
  1  2  1  0
  2  3  1  0
  2 16  2  0
  3  4  1  0
  3  5  2  0
  5  6  1  0
  5 13  1  0
  6  7  1  0
  6  8  1  0
  8  9  2  0
  8 10  1  0
 10 11  1  0
 10 12  1  0
 10 13  1  0
 13 14  2  0
 14 15  1  0
 14 16  1  0
 16 17  1  0
M  END
$$$$
