F309_53
     RDKit          3D

 14 14  0  0  0  0  0  0  0  0999 V2000
  -26.9265   14.7360   29.1195 O   0  0  0  0  0  0  0  0  0  0  0  0
  -26.2584   14.4072   28.1003 C   0  0  0  0  0  0  0  0  0  0  0  0
  -26.4936   14.9678   26.9891 O   0  0  0  0  0  0  0  0  0  0  0  0
  -25.2209   13.3891   28.2055 C   0  0  0  0  0  0  0  0  0  0  0  0
  -24.7745   12.7595   29.3555 C   0  0  0  0  0  0  0  0  0  0  0  0
  -25.2988   13.0238   30.7368 C   0  0  0  0  0  0  0  0  0  0  0  0
  -24.7853   12.4055   31.4802 H   0  0  0  0  0  0  0  0  0  0  0  0
  -26.3665   12.7897   30.7965 H   0  0  0  0  0  0  0  0  0  0  0  0
  -25.1400   14.0708   31.0162 H   0  0  0  0  0  0  0  0  0  0  0  0
  -23.7585   11.8214   29.1112 C   0  0  0  0  0  0  0  0  0  0  0  0
  -23.2986   11.2437   29.8703 H   0  0  0  0  0  0  0  0  0  0  0  0
  -23.4220   11.7272   27.7922 C   0  0  0  0  0  0  0  0  0  0  0  0
  -22.6902   11.0975   27.3567 H   0  0  0  0  0  0  0  0  0  0  0  0
  -24.3532   12.7966   26.8169 S   0  0  0  0  0  0  0  0  0  0  0  0
  1  2  1  0
  2  3  2  0
  2  4  1  0
  4  5  2  0
  4 14  1  0
  5  6  1  0
  5 10  1  0
  6  7  1  0
  6  8  1  0
  6  9  1  0
 10 11  1  0
 10 12  2  0
 12 13  1  0
 12 14  1  0
M  END
$$$$
