F650_60
     RDKit          3D

 23 24  0  0  0  0  0  0  0  0999 V2000
  -24.0942   14.0613   32.3631 O   0  0  0  0  0  0  0  0  0  0  0  0
  -24.2541   12.9762   31.8131 C   0  0  0  0  0  0  0  0  0  0  0  0
  -23.5169   11.9097   32.3012 N   0  0  0  0  0  0  0  0  0  0  0  0
  -23.4393   10.5534   31.7694 C   0  0  0  0  0  0  0  0  0  0  0  0
  -24.4270   10.1010   31.6734 H   0  0  0  0  0  0  0  0  0  0  0  0
  -22.9658   10.6037   30.7833 H   0  0  0  0  0  0  0  0  0  0  0  0
  -22.5833    9.7865   32.7706 C   0  0  0  0  0  0  0  0  0  0  0  0
  -23.2210    9.3516   33.5501 H   0  0  0  0  0  0  0  0  0  0  0  0
  -22.0141    8.9785   32.3053 H   0  0  0  0  0  0  0  0  0  0  0  0
  -21.7013   10.8676   33.3760 C   0  0  0  0  0  0  0  0  0  0  0  0
  -20.8682   11.0887   32.6980 H   0  0  0  0  0  0  0  0  0  0  0  0
  -21.2894   10.5894   34.3498 H   0  0  0  0  0  0  0  0  0  0  0  0
  -22.6402   12.0601   33.4545 C   0  0  0  0  0  0  0  0  0  0  0  0
  -22.1074   13.0150   33.4346 H   0  0  0  0  0  0  0  0  0  0  0  0
  -23.2647   12.0206   34.3547 H   0  0  0  0  0  0  0  0  0  0  0  0
  -25.1211   12.8106   30.6622 C   0  0  0  0  0  0  0  0  0  0  0  0
  -24.6812   12.4285   29.4296 C   0  0  0  0  0  0  0  0  0  0  0  0
  -23.7133   12.1752   29.0811 H   0  0  0  0  0  0  0  0  0  0  0  0
  -25.7630   12.4244   28.6345 N   0  0  0  0  0  0  0  0  0  0  0  0
  -25.7595   12.1765   27.6263 H   0  0  0  0  0  0  0  0  0  0  0  0
  -26.8910   12.7965   29.3009 N   0  0  0  0  0  0  0  0  0  0  0  0
  -26.4924   13.0358   30.5177 C   0  0  0  0  0  0  0  0  0  0  0  0
  -27.1444   13.3721   31.2831 H   0  0  0  0  0  0  0  0  0  0  0  0
  1  2  2  0
  2  3  1  0
  2 16  1  0
  3  4  1  0
  3 13  1  0
  4  5  1  0
  4  6  1  0
  4  7  1  0
  7  8  1  0
  7  9  1  0
  7 10  1  0
 10 11  1  0
 10 12  1  0
 10 13  1  0
 13 14  1  0
 13 15  1  0
 16 17  2  0
 16 22  1  0
 17 18  1  0
 17 19  1  0
 19 20  1  0
 19 21  1  0
 21 22  2  0
 22 23  1  0
M  END
$$$$
