F501_58
     RDKit          3D

 23 24  0  0  0  0  0  0  0  0999 V2000
  -21.4234   12.4735   28.3073 C   0  0  0  0  0  0  0  0  0  0  0  0
  -21.4547   13.4870   27.8988 H   0  0  0  0  0  0  0  0  0  0  0  0
  -21.6311   11.7452   27.5199 H   0  0  0  0  0  0  0  0  0  0  0  0
  -20.4396   12.2899   28.7455 H   0  0  0  0  0  0  0  0  0  0  0  0
  -22.4222   12.3297   29.3309 N   0  0  0  0  0  0  0  0  0  0  0  0
  -22.3597   11.2953   30.1822 N   0  0  0  0  0  0  0  0  0  0  0  0
  -23.3828   11.3849   30.9985 N   0  0  0  0  0  0  0  0  0  0  0  0
  -24.0749   12.4879   30.6461 C   0  0  0  0  0  0  0  0  0  0  0  0
  -23.4787   13.0958   29.6081 C   0  0  0  0  0  0  0  0  0  0  0  0
  -23.9165   14.3507   28.9428 C   0  0  0  0  0  0  0  0  0  0  0  0
  -23.2415   15.1562   29.2594 H   0  0  0  0  0  0  0  0  0  0  0  0
  -23.8197   14.2645   27.8562 H   0  0  0  0  0  0  0  0  0  0  0  0
  -25.3566   14.7131   29.3810 C   0  0  0  0  0  0  0  0  0  0  0  0
  -26.3878   14.0679   28.4497 C   0  0  0  0  0  0  0  0  0  0  0  0
  -27.1844   13.2498   28.9612 O   0  0  0  0  0  0  0  0  0  0  0  0
  -26.3443   14.3631   27.2361 O   0  0  0  0  0  0  0  0  0  0  0  0
  -25.6018   14.4268   30.8854 C   0  0  0  0  0  0  0  0  0  0  0  0
  -24.9392   15.0824   31.4673 H   0  0  0  0  0  0  0  0  0  0  0  0
  -26.6262   14.6909   31.1734 H   0  0  0  0  0  0  0  0  0  0  0  0
  -25.3206   12.9617   31.2879 C   0  0  0  0  0  0  0  0  0  0  0  0
  -26.1516   12.3179   30.9783 H   0  0  0  0  0  0  0  0  0  0  0  0
  -25.2411   12.8897   32.3786 H   0  0  0  0  0  0  0  0  0  0  0  0
  -25.4873   15.7928   29.2248 H   0  0  0  0  0  0  0  0  0  0  0  0
  1  2  1  0
  1  3  1  0
  1  4  1  0
  1  5  1  0
  5  6  1  0
  5  9  1  0
  6  7  2  0
  7  8  1  0
  8  9  2  0
  8 20  1  0
  9 10  1  0
 10 11  1  0
 10 12  1  0
 10 13  1  0
 13 14  1  0
 13 17  1  0
 13 23  1  0
 14 15  1  0
 14 16  2  0
 17 18  1  0
 17 19  1  0
 17 20  1  0
 20 21  1  0
 20 22  1  0
M  END
$$$$
