F96_76
     RDKit          3D

 19 19  0  0  0  0  0  0  0  0999 V2000
  -24.0850   11.9979   28.8496 O   0  0  0  0  0  0  0  0  0  0  0  0
  -23.0277   11.7031   29.3882 C   0  0  0  0  0  0  0  0  0  0  0  0
  -21.8631   12.1705   28.9614 N   0  0  0  0  0  0  0  0  0  0  0  0
  -21.0105   11.8992   29.4202 H   0  0  0  0  0  0  0  0  0  0  0  0
  -21.7632   13.0705   27.8320 C   0  0  0  0  0  0  0  0  0  0  0  0
  -22.5795   12.8474   27.1365 H   0  0  0  0  0  0  0  0  0  0  0  0
  -21.8943   14.0983   28.1871 H   0  0  0  0  0  0  0  0  0  0  0  0
  -20.4381   12.8865   27.1840 C   0  0  0  0  0  0  0  0  0  0  0  0
  -19.9712   11.7690   26.5787 C   0  0  0  0  0  0  0  0  0  0  0  0
  -20.4057   10.8141   26.4289 H   0  0  0  0  0  0  0  0  0  0  0  0
  -18.7319   12.0793   26.1417 N   0  0  0  0  0  0  0  0  0  0  0  0
  -18.0993   11.4370   25.6290 H   0  0  0  0  0  0  0  0  0  0  0  0
  -18.3884   13.3558   26.4548 N   0  0  0  0  0  0  0  0  0  0  0  0
  -19.4263   13.8361   27.0827 C   0  0  0  0  0  0  0  0  0  0  0  0
  -19.4681   14.8263   27.4625 H   0  0  0  0  0  0  0  0  0  0  0  0
  -22.9610   10.7622   30.5590 C   0  0  0  0  0  0  0  0  0  0  0  0
  -22.0726   10.9509   31.1681 H   0  0  0  0  0  0  0  0  0  0  0  0
  -22.9314    9.7341   30.1903 H   0  0  0  0  0  0  0  0  0  0  0  0
  -23.8462   10.9003   31.1860 H   0  0  0  0  0  0  0  0  0  0  0  0
  1  2  2  0
  2  3  1  0
  2 16  1  0
  3  4  1  0
  3  5  1  0
  5  6  1  0
  5  7  1  0
  5  8  1  0
  8  9  2  0
  8 14  1  0
  9 10  1  0
  9 11  1  0
 11 12  1  0
 11 13  1  0
 13 14  2  0
 14 15  1  0
 16 17  1  0
 16 18  1  0
 16 19  1  0
M  END
$$$$
