F760_44
     RDKit          3D

 17 18  0  0  0  0  0  0  0  0999 V2000
  -25.5452   17.7425   29.4696 Br  0  0  0  0  0  0  0  0  0  0  0  0
  -24.8056   16.0024   29.4956 C   0  0  0  0  0  0  0  0  0  0  0  0
  -24.8485   15.2120   28.3495 C   0  0  0  0  0  0  0  0  0  0  0  0
  -25.2909   15.5649   27.4553 H   0  0  0  0  0  0  0  0  0  0  0  0
  -24.2934   13.9413   28.4191 C   0  0  0  0  0  0  0  0  0  0  0  0
  -24.2236   12.9892   27.4130 N   0  0  0  0  0  0  0  0  0  0  0  0
  -24.5739   13.0715   26.4509 H   0  0  0  0  0  0  0  0  0  0  0  0
  -23.6093   11.8639   27.8486 C   0  0  0  0  0  0  0  0  0  0  0  0
  -23.4546   10.9177   27.1126 O   0  0  0  0  0  0  0  0  0  0  0  0
  -23.2078   12.0503   29.3099 C   0  0  0  0  0  0  0  0  0  0  0  0
  -23.7214   11.3150   29.9334 H   0  0  0  0  0  0  0  0  0  0  0  0
  -22.1214   11.9881   29.4067 H   0  0  0  0  0  0  0  0  0  0  0  0
  -23.7073   13.4390   29.5634 C   0  0  0  0  0  0  0  0  0  0  0  0
  -23.6626   14.2285   30.7073 C   0  0  0  0  0  0  0  0  0  0  0  0
  -23.2161   13.8628   31.5975 H   0  0  0  0  0  0  0  0  0  0  0  0
  -24.2137   15.5122   30.6698 C   0  0  0  0  0  0  0  0  0  0  0  0
  -24.1856   16.1230   31.5349 H   0  0  0  0  0  0  0  0  0  0  0  0
  1  2  1  0
  2  3  1  0
  2 16  2  0
  3  4  1  0
  3  5  2  0
  5  6  1  0
  5 13  1  0
  6  7  1  0
  6  8  1  0
  8  9  2  0
  8 10  1  0
 10 11  1  0
 10 12  1  0
 10 13  1  0
 13 14  2  0
 14 15  1  0
 14 16  1  0
 16 17  1  0
M  END
$$$$
