F709_1
     RDKit          3D

 29 30  0  0  0  0  0  0  0  0999 V2000
  -25.9641   14.0688   26.5312 O   0  0  0  0  0  0  0  0  0  0  0  0
  -24.9461   13.5123   26.9086 C   0  0  0  0  0  0  0  0  0  0  0  0
  -24.3427   12.6285   26.1109 N   0  0  0  0  0  0  0  0  0  0  0  0
  -24.9822   11.9984   25.6143 H   0  0  0  0  0  0  0  0  0  0  0  0
  -23.5013   12.9538   25.6286 H   0  0  0  0  0  0  0  0  0  0  0  0
  -24.3522   13.7455   28.1211 N   0  0  0  0  0  0  0  0  0  0  0  0
  -24.8255   14.8649   28.9403 C   0  0  0  0  0  0  0  0  0  0  0  0
  -25.6665   15.3817   28.4662 H   0  0  0  0  0  0  0  0  0  0  0  0
  -23.9978   15.5811   29.0106 H   0  0  0  0  0  0  0  0  0  0  0  0
  -25.2286   14.3903   30.3362 C   0  0  0  0  0  0  0  0  0  0  0  0
  -26.0848   13.7086   30.2663 H   0  0  0  0  0  0  0  0  0  0  0  0
  -25.5439   15.2441   30.9424 H   0  0  0  0  0  0  0  0  0  0  0  0
  -24.1448   13.6329   30.9803 N   0  0  0  0  0  0  0  0  0  0  0  0
  -23.7129   13.9765   32.2576 C   0  0  0  0  0  0  0  0  0  0  0  0
  -24.0557   15.0844   32.6718 O   0  0  0  0  0  0  0  0  0  0  0  0
  -22.9003   13.0782   33.0474 C   0  0  0  0  0  0  0  0  0  0  0  0
  -21.9012   13.5587   33.8473 O   0  0  0  0  0  0  0  0  0  0  0  0
  -21.2768   12.5045   34.4172 C   0  0  0  0  0  0  0  0  0  0  0  0
  -20.4716   12.6589   35.0890 H   0  0  0  0  0  0  0  0  0  0  0  0
  -21.8427   11.3538   33.9856 C   0  0  0  0  0  0  0  0  0  0  0  0
  -21.5552   10.3737   34.2647 H   0  0  0  0  0  0  0  0  0  0  0  0
  -22.8783   11.7151   33.0912 C   0  0  0  0  0  0  0  0  0  0  0  0
  -23.5242   11.0719   32.5496 H   0  0  0  0  0  0  0  0  0  0  0  0
  -23.6095   12.5299   30.1703 C   0  0  0  0  0  0  0  0  0  0  0  0
  -22.7028   12.1100   30.6092 H   0  0  0  0  0  0  0  0  0  0  0  0
  -24.3796   11.7502   30.1479 H   0  0  0  0  0  0  0  0  0  0  0  0
  -23.2638   12.9731   28.7365 C   0  0  0  0  0  0  0  0  0  0  0  0
  -23.0121   12.0845   28.1534 H   0  0  0  0  0  0  0  0  0  0  0  0
  -22.3842   13.6281   28.7505 H   0  0  0  0  0  0  0  0  0  0  0  0
  1  2  2  0
  2  3  1  0
  2  6  1  0
  3  4  1  0
  3  5  1  0
  6  7  1  0
  6 27  1  0
  7  8  1  0
  7  9  1  0
  7 10  1  0
 10 11  1  0
 10 12  1  0
 10 13  1  0
 13 14  1  0
 13 24  1  0
 14 15  2  0
 14 16  1  0
 16 17  1  0
 16 22  2  0
 17 18  1  0
 18 19  1  0
 18 20  2  0
 20 21  1  0
 20 22  1  0
 22 23  1  0
 24 25  1  0
 24 26  1  0
 24 27  1  0
 27 28  1  0
 27 29  1  0
M  END
$$$$
