F666_10
     RDKit          3D

 35 37  0  0  0  0  0  0  0  0999 V2000
  -19.8068   11.0115   24.8092 F   0  0  0  0  0  0  0  0  0  0  0  0
  -19.3108   12.1500   25.3141 C   0  0  0  0  0  0  0  0  0  0  0  0
  -18.7888   12.1421   26.6016 C   0  0  0  0  0  0  0  0  0  0  0  0
  -18.7859   11.2474   27.1678 H   0  0  0  0  0  0  0  0  0  0  0  0
  -18.2748   13.3236   27.1277 C   0  0  0  0  0  0  0  0  0  0  0  0
  -17.8775   13.3210   28.1048 H   0  0  0  0  0  0  0  0  0  0  0  0
  -18.2989   14.5028   26.3616 C   0  0  0  0  0  0  0  0  0  0  0  0
  -17.8032   15.6891   26.8880 N   0  0  0  0  0  0  0  0  0  0  0  0
  -18.6217   16.9045   27.0128 C   0  0  0  0  0  0  0  0  0  0  0  0
  -19.6177   16.8027   26.5704 H   0  0  0  0  0  0  0  0  0  0  0  0
  -18.7770   17.0992   28.0813 H   0  0  0  0  0  0  0  0  0  0  0  0
  -17.8969   18.1043   26.3821 C   0  0  0  0  0  0  0  0  0  0  0  0
  -18.4771   19.0147   26.5495 H   0  0  0  0  0  0  0  0  0  0  0  0
  -17.8124   17.9637   25.2983 H   0  0  0  0  0  0  0  0  0  0  0  0
  -16.5293   18.2296   26.9041 N   0  0  0  0  0  0  0  0  0  0  0  0
  -16.0064   19.3667   27.4734 C   0  0  0  0  0  0  0  0  0  0  0  0
  -14.8519   19.3508   27.8590 O   0  0  0  0  0  0  0  0  0  0  0  0
  -16.8507   20.5759   27.5990 C   0  0  0  0  0  0  0  0  0  0  0  0
  -17.5687   20.5304   28.4121 H   0  0  0  0  0  0  0  0  0  0  0  0
  -17.3240   21.3019   26.3594 C   0  0  0  0  0  0  0  0  0  0  0  0
  -17.0092   20.9265   25.3921 H   0  0  0  0  0  0  0  0  0  0  0  0
  -18.3235   21.7192   26.3685 H   0  0  0  0  0  0  0  0  0  0  0  0
  -16.2881   21.9317   27.2398 C   0  0  0  0  0  0  0  0  0  0  0  0
  -15.2743   21.9890   26.8587 H   0  0  0  0  0  0  0  0  0  0  0  0
  -16.5842   22.7799   27.8453 H   0  0  0  0  0  0  0  0  0  0  0  0
  -15.7226   17.0102   26.7671 C   0  0  0  0  0  0  0  0  0  0  0  0
  -15.5778   16.8467   25.6930 H   0  0  0  0  0  0  0  0  0  0  0  0
  -14.7319   17.1309   27.2166 H   0  0  0  0  0  0  0  0  0  0  0  0
  -16.4246   15.7923   27.3929 C   0  0  0  0  0  0  0  0  0  0  0  0
  -16.4554   15.8974   28.4837 H   0  0  0  0  0  0  0  0  0  0  0  0
  -15.8251   14.9057   27.1590 H   0  0  0  0  0  0  0  0  0  0  0  0
  -18.8130   14.4765   25.0548 C   0  0  0  0  0  0  0  0  0  0  0  0
  -18.7908   15.3491   24.4573 H   0  0  0  0  0  0  0  0  0  0  0  0
  -19.3296   13.2954   24.5306 C   0  0  0  0  0  0  0  0  0  0  0  0
  -19.7229   13.2619   23.5487 H   0  0  0  0  0  0  0  0  0  0  0  0
  1  2  1  0
  2  3  1  0
  2 34  2  0
  3  4  1  0
  3  5  2  0
  5  6  1  0
  5  7  1  0
  7  8  1  0
  7 32  2  0
  8  9  1  0
  8 29  1  0
  9 10  1  0
  9 11  1  0
  9 12  1  0
 12 13  1  0
 12 14  1  0
 12 15  1  0
 15 16  1  0
 15 26  1  0
 16 17  2  0
 16 18  1  0
 18 19  1  0
 18 20  1  0
 18 23  1  0
 20 21  1  0
 20 22  1  0
 20 23  1  0
 23 24  1  0
 23 25  1  0
 26 27  1  0
 26 28  1  0
 26 29  1  0
 29 30  1  0
 29 31  1  0
 32 33  1  0
 32 34  1  0
 34 35  1  0
M  END
$$$$
