F709_37
     RDKit          3D

 29 30  0  0  0  0  0  0  0  0999 V2000
  -17.1177   13.3408   24.2825 O   0  0  0  0  0  0  0  0  0  0  0  0
  -17.7910   13.9925   25.0638 C   0  0  0  0  0  0  0  0  0  0  0  0
  -17.3848   15.2105   25.4283 N   0  0  0  0  0  0  0  0  0  0  0  0
  -17.7489   15.9720   24.8452 H   0  0  0  0  0  0  0  0  0  0  0  0
  -17.2764   15.3704   26.4328 H   0  0  0  0  0  0  0  0  0  0  0  0
  -18.9750   13.5580   25.5994 N   0  0  0  0  0  0  0  0  0  0  0  0
  -19.5916   12.3402   25.0656 C   0  0  0  0  0  0  0  0  0  0  0  0
  -18.9731   11.8867   24.2841 H   0  0  0  0  0  0  0  0  0  0  0  0
  -20.5393   12.6394   24.6018 H   0  0  0  0  0  0  0  0  0  0  0  0
  -19.8496   11.3240   26.1779 C   0  0  0  0  0  0  0  0  0  0  0  0
  -18.8974   10.9934   26.6101 H   0  0  0  0  0  0  0  0  0  0  0  0
  -20.3420   10.4389   25.7657 H   0  0  0  0  0  0  0  0  0  0  0  0
  -20.6233   11.9171   27.2791 N   0  0  0  0  0  0  0  0  0  0  0  0
  -21.7778   11.2924   27.7404 C   0  0  0  0  0  0  0  0  0  0  0  0
  -22.2615   10.4275   27.0093 O   0  0  0  0  0  0  0  0  0  0  0  0
  -22.3750   11.6494   29.0080 C   0  0  0  0  0  0  0  0  0  0  0  0
  -21.6335   11.6458   30.1566 O   0  0  0  0  0  0  0  0  0  0  0  0
  -22.4520   11.9602   31.1849 C   0  0  0  0  0  0  0  0  0  0  0  0
  -22.0707   12.0240   32.1718 H   0  0  0  0  0  0  0  0  0  0  0  0
  -23.7097   12.1483   30.7231 C   0  0  0  0  0  0  0  0  0  0  0  0
  -24.5571   12.4016   31.3054 H   0  0  0  0  0  0  0  0  0  0  0  0
  -23.6707   11.9343   29.3246 C   0  0  0  0  0  0  0  0  0  0  0  0
  -24.4760   11.9807   28.6365 H   0  0  0  0  0  0  0  0  0  0  0  0
  -20.0629   13.1671   27.8111 C   0  0  0  0  0  0  0  0  0  0  0  0
  -20.7527   13.6573   28.5004 H   0  0  0  0  0  0  0  0  0  0  0  0
  -19.1533   12.8984   28.3603 H   0  0  0  0  0  0  0  0  0  0  0  0
  -19.7296   14.1777   26.6979 C   0  0  0  0  0  0  0  0  0  0  0  0
  -19.1889   15.0150   27.1444 H   0  0  0  0  0  0  0  0  0  0  0  0
  -20.6558   14.5689   26.2597 H   0  0  0  0  0  0  0  0  0  0  0  0
  1  2  2  0
  2  3  1  0
  2  6  1  0
  3  4  1  0
  3  5  1  0
  6  7  1  0
  6 27  1  0
  7  8  1  0
  7  9  1  0
  7 10  1  0
 10 11  1  0
 10 12  1  0
 10 13  1  0
 13 14  1  0
 13 24  1  0
 14 15  2  0
 14 16  1  0
 16 17  1  0
 16 22  2  0
 17 18  1  0
 18 19  1  0
 18 20  2  0
 20 21  1  0
 20 22  1  0
 22 23  1  0
 24 25  1  0
 24 26  1  0
 24 27  1  0
 27 28  1  0
 27 29  1  0
M  END
$$$$
