F741_77
     RDKit          3D

 25 27  0  0  0  0  0  0  0  0999 V2000
  -23.9942   15.7829   32.2979 O   0  0  0  0  0  0  0  0  0  0  0  0
  -24.0037   15.1709   31.2315 C   0  0  0  0  0  0  0  0  0  0  0  0
  -24.3939   15.8309   30.1049 N   0  0  0  0  0  0  0  0  0  0  0  0
  -24.3699   15.2744   29.2347 H   0  0  0  0  0  0  0  0  0  0  0  0
  -24.8078   17.1935   30.0633 C   0  0  0  0  0  0  0  0  0  0  0  0
  -25.4703   17.4606   30.8834 H   0  0  0  0  0  0  0  0  0  0  0  0
  -25.0627   17.8783   28.7478 C   0  0  0  0  0  0  0  0  0  0  0  0
  -24.8845   17.3302   27.8306 H   0  0  0  0  0  0  0  0  0  0  0  0
  -25.8891   18.5773   28.6958 H   0  0  0  0  0  0  0  0  0  0  0  0
  -23.8710   18.2630   29.5741 C   0  0  0  0  0  0  0  0  0  0  0  0
  -23.8884   19.2178   30.0854 H   0  0  0  0  0  0  0  0  0  0  0  0
  -22.8902   17.9638   29.2223 H   0  0  0  0  0  0  0  0  0  0  0  0
  -23.6188   13.7867   31.0820 C   0  0  0  0  0  0  0  0  0  0  0  0
  -23.5364   13.0919   29.9014 C   0  0  0  0  0  0  0  0  0  0  0  0
  -23.1336   11.8308   30.2726 N   0  0  0  0  0  0  0  0  0  0  0  0
  -22.9579   11.7034   31.6147 N   0  0  0  0  0  0  0  0  0  0  0  0
  -23.2549   12.8905   32.0860 C   0  0  0  0  0  0  0  0  0  0  0  0
  -23.2175   13.1294   33.1199 H   0  0  0  0  0  0  0  0  0  0  0  0
  -22.9372   10.8192   29.3242 C   0  0  0  0  0  0  0  0  0  0  0  0
  -22.6278    9.8812   29.7059 H   0  0  0  0  0  0  0  0  0  0  0  0
  -23.1692   11.1614   28.0198 C   0  0  0  0  0  0  0  0  0  0  0  0
  -23.0443   10.4518   27.2441 H   0  0  0  0  0  0  0  0  0  0  0  0
  -23.5881   12.4881   27.6722 C   0  0  0  0  0  0  0  0  0  0  0  0
  -23.7620   12.7293   26.6550 H   0  0  0  0  0  0  0  0  0  0  0  0
  -23.7689   13.4271   28.5608 N   0  0  0  0  0  0  0  0  0  0  0  0
  1  2  2  0
  2  3  1  0
  2 13  1  0
  3  4  1  0
  3  5  1  0
  5  6  1  0
  5  7  1  0
  5 10  1  0
  7  8  1  0
  7  9  1  0
  7 10  1  0
 10 11  1  0
 10 12  1  0
 13 14  2  0
 13 17  1  0
 14 15  1  0
 14 25  1  0
 15 16  1  0
 15 19  1  0
 16 17  2  0
 17 18  1  0
 19 20  1  0
 19 21  2  0
 21 22  1  0
 21 23  1  0
 23 24  1  0
 23 25  2  0
M  END
$$$$
