F199_66
     RDKit          3D

 25 26  0  0  0  0  0  0  0  0999 V2000
  -21.9297   11.9576   29.9157 O   0  0  0  0  0  0  0  0  0  0  0  0
  -21.8589   12.5407   28.8359 C   0  0  0  0  0  0  0  0  0  0  0  0
  -22.9835   13.1394   28.3224 N   0  0  0  0  0  0  0  0  0  0  0  0
  -22.8298   13.6029   27.4160 H   0  0  0  0  0  0  0  0  0  0  0  0
  -24.2495   13.1776   28.8788 C   0  0  0  0  0  0  0  0  0  0  0  0
  -24.4881   12.7638   30.1399 C   0  0  0  0  0  0  0  0  0  0  0  0
  -23.8530   12.3705   30.8881 H   0  0  0  0  0  0  0  0  0  0  0  0
  -25.8188   12.9520   30.3205 N   0  0  0  0  0  0  0  0  0  0  0  0
  -26.6000   12.6723   31.4975 C   0  0  0  0  0  0  0  0  0  0  0  0
  -25.9555   12.2468   32.2703 H   0  0  0  0  0  0  0  0  0  0  0  0
  -27.3838   11.9589   31.2305 H   0  0  0  0  0  0  0  0  0  0  0  0
  -27.0381   13.6089   31.8513 H   0  0  0  0  0  0  0  0  0  0  0  0
  -26.4225   13.4686   29.2171 N   0  0  0  0  0  0  0  0  0  0  0  0
  -25.4613   13.6060   28.3382 C   0  0  0  0  0  0  0  0  0  0  0  0
  -25.6087   13.9902   27.3621 H   0  0  0  0  0  0  0  0  0  0  0  0
  -20.6573   12.6557   28.0344 C   0  0  0  0  0  0  0  0  0  0  0  0
  -19.4587   12.5286   28.5468 N   0  0  0  0  0  0  0  0  0  0  0  0
  -18.5878   12.6887   27.5546 O   0  0  0  0  0  0  0  0  0  0  0  0
  -19.2257   12.9196   26.4027 C   0  0  0  0  0  0  0  0  0  0  0  0
  -18.3963   13.1195   25.2040 C   0  0  0  0  0  0  0  0  0  0  0  0
  -19.0170   13.3083   24.3229 H   0  0  0  0  0  0  0  0  0  0  0  0
  -17.7869   12.2321   25.0075 H   0  0  0  0  0  0  0  0  0  0  0  0
  -17.7267   13.9741   25.3378 H   0  0  0  0  0  0  0  0  0  0  0  0
  -20.5387   12.9075   26.6662 C   0  0  0  0  0  0  0  0  0  0  0  0
  -21.3296   13.0569   25.9780 H   0  0  0  0  0  0  0  0  0  0  0  0
  1  2  2  0
  2  3  1  0
  2 16  1  0
  3  4  1  0
  3  5  1  0
  5  6  2  0
  5 14  1  0
  6  7  1  0
  6  8  1  0
  8  9  1  0
  8 13  1  0
  9 10  1  0
  9 11  1  0
  9 12  1  0
 13 14  2  0
 14 15  1  0
 16 17  2  0
 16 24  1  0
 17 18  1  0
 18 19  1  0
 19 20  1  0
 19 24  2  0
 20 21  1  0
 20 22  1  0
 20 23  1  0
 24 25  1  0
M  END
$$$$
