F14_92
     RDKit          3D

 19 19  0  0  0  0  0  0  0  0999 V2000
  -23.9621   14.8593   33.3242 Br  0  0  0  0  0  0  0  0  0  0  0  0
  -23.7199   14.5583   31.4981 C   0  0  0  0  0  0  0  0  0  0  0  0
  -23.7047   13.3768   30.8446 C   0  0  0  0  0  0  0  0  0  0  0  0
  -23.8108   12.3799   31.1867 H   0  0  0  0  0  0  0  0  0  0  0  0
  -23.4957   13.6783   29.5440 N   0  0  0  0  0  0  0  0  0  0  0  0
  -23.4035   12.7704   28.4180 C   0  0  0  0  0  0  0  0  0  0  0  0
  -24.1073   11.9513   28.6032 H   0  0  0  0  0  0  0  0  0  0  0  0
  -23.7370   13.3229   27.5333 H   0  0  0  0  0  0  0  0  0  0  0  0
  -21.9875   12.2501   28.2244 C   0  0  0  0  0  0  0  0  0  0  0  0
  -21.9414   11.5102   27.4167 H   0  0  0  0  0  0  0  0  0  0  0  0
  -21.6456   11.7821   29.1540 H   0  0  0  0  0  0  0  0  0  0  0  0
  -21.1214   13.3491   27.9275 O   0  0  0  0  0  0  0  0  0  0  0  0
  -19.7794   12.9233   27.7309 C   0  0  0  0  0  0  0  0  0  0  0  0
  -19.1660   13.8035   27.5224 H   0  0  0  0  0  0  0  0  0  0  0  0
  -19.7158   12.2425   26.8772 H   0  0  0  0  0  0  0  0  0  0  0  0
  -19.3967   12.4348   28.6320 H   0  0  0  0  0  0  0  0  0  0  0  0
  -23.3707   15.0207   29.3480 N   0  0  0  0  0  0  0  0  0  0  0  0
  -23.5112   15.5438   30.5392 C   0  0  0  0  0  0  0  0  0  0  0  0
  -23.4657   16.5853   30.7289 H   0  0  0  0  0  0  0  0  0  0  0  0
  1  2  1  0
  2  3  2  0
  2 18  1  0
  3  4  1  0
  3  5  1  0
  5  6  1  0
  5 17  1  0
  6  7  1  0
  6  8  1  0
  6  9  1  0
  9 10  1  0
  9 11  1  0
  9 12  1  0
 12 13  1  0
 13 14  1  0
 13 15  1  0
 13 16  1  0
 17 18  2  0
 18 19  1  0
M  END
$$$$
