F199_32
     RDKit          3D

 25 26  0  0  0  0  0  0  0  0999 V2000
  -22.0056   11.7802   29.9752 O   0  0  0  0  0  0  0  0  0  0  0  0
  -21.9185   12.4779   28.9670 C   0  0  0  0  0  0  0  0  0  0  0  0
  -23.0068   13.2133   28.5646 N   0  0  0  0  0  0  0  0  0  0  0  0
  -22.8417   13.7663   27.7120 H   0  0  0  0  0  0  0  0  0  0  0  0
  -24.2509   13.2798   29.1658 C   0  0  0  0  0  0  0  0  0  0  0  0
  -25.2267   14.0858   28.7004 C   0  0  0  0  0  0  0  0  0  0  0  0
  -25.2612   14.7575   27.8846 H   0  0  0  0  0  0  0  0  0  0  0  0
  -26.2755   13.8776   29.5344 N   0  0  0  0  0  0  0  0  0  0  0  0
  -27.5778   14.4906   29.4881 C   0  0  0  0  0  0  0  0  0  0  0  0
  -27.6168   15.2016   28.6594 H   0  0  0  0  0  0  0  0  0  0  0  0
  -27.7490   15.0101   30.4342 H   0  0  0  0  0  0  0  0  0  0  0  0
  -28.3236   13.7053   29.3412 H   0  0  0  0  0  0  0  0  0  0  0  0
  -25.9913   12.9699   30.5061 N   0  0  0  0  0  0  0  0  0  0  0  0
  -24.7540   12.6060   30.2781 C   0  0  0  0  0  0  0  0  0  0  0  0
  -24.2317   11.8987   30.8688 H   0  0  0  0  0  0  0  0  0  0  0  0
  -20.7332   12.5963   28.1421 C   0  0  0  0  0  0  0  0  0  0  0  0
  -19.5287   12.3886   28.6126 N   0  0  0  0  0  0  0  0  0  0  0  0
  -18.6765   12.5776   27.6094 O   0  0  0  0  0  0  0  0  0  0  0  0
  -19.3323   12.9079   26.4923 C   0  0  0  0  0  0  0  0  0  0  0  0
  -18.5249   13.1516   25.2866 C   0  0  0  0  0  0  0  0  0  0  0  0
  -19.1586   13.4217   24.4365 H   0  0  0  0  0  0  0  0  0  0  0  0
  -17.9581   12.2552   25.0176 H   0  0  0  0  0  0  0  0  0  0  0  0
  -17.8172   13.9683   25.4564 H   0  0  0  0  0  0  0  0  0  0  0  0
  -20.6378   12.9313   26.7900 C   0  0  0  0  0  0  0  0  0  0  0  0
  -21.4384   13.1564   26.1344 H   0  0  0  0  0  0  0  0  0  0  0  0
  1  2  2  0
  2  3  1  0
  2 16  1  0
  3  4  1  0
  3  5  1  0
  5  6  2  0
  5 14  1  0
  6  7  1  0
  6  8  1  0
  8  9  1  0
  8 13  1  0
  9 10  1  0
  9 11  1  0
  9 12  1  0
 13 14  2  0
 14 15  1  0
 16 17  2  0
 16 24  1  0
 17 18  1  0
 18 19  1  0
 19 20  1  0
 19 24  2  0
 20 21  1  0
 20 22  1  0
 20 23  1  0
 24 25  1  0
M  END
$$$$
