F362_71
     RDKit          3D

 30 31  0  0  0  0  0  0  0  0999 V2000
  -23.6698   17.4280   30.4600 N   0  0  0  0  0  0  0  0  0  0  0  0
  -23.7685   17.3560   31.9306 C   0  0  0  0  0  0  0  0  0  0  0  0
  -23.5772   18.3266   32.3964 H   0  0  0  0  0  0  0  0  0  0  0  0
  -24.7996   17.1185   32.2217 H   0  0  0  0  0  0  0  0  0  0  0  0
  -22.8564   16.2718   32.4846 C   0  0  0  0  0  0  0  0  0  0  0  0
  -21.8125   16.4238   32.1974 H   0  0  0  0  0  0  0  0  0  0  0  0
  -23.1553   15.2839   32.1171 H   0  0  0  0  0  0  0  0  0  0  0  0
  -22.9105   16.2537   33.5780 H   0  0  0  0  0  0  0  0  0  0  0  0
  -24.5467   16.4599   29.7711 C   0  0  0  0  0  0  0  0  0  0  0  0
  -24.1222   16.1598   28.8070 H   0  0  0  0  0  0  0  0  0  0  0  0
  -24.6184   15.5315   30.3522 H   0  0  0  0  0  0  0  0  0  0  0  0
  -25.9451   17.0321   29.5853 C   0  0  0  0  0  0  0  0  0  0  0  0
  -25.9309   17.9403   28.9754 H   0  0  0  0  0  0  0  0  0  0  0  0
  -26.3978   17.2861   30.5489 H   0  0  0  0  0  0  0  0  0  0  0  0
  -26.5897   16.3000   29.0890 H   0  0  0  0  0  0  0  0  0  0  0  0
  -22.8113   18.3420   29.7517 C   0  0  0  0  0  0  0  0  0  0  0  0
  -21.6087   18.8761   30.3426 N   0  0  0  0  0  0  0  0  0  0  0  0
  -21.0702   18.6599   31.5629 N   0  0  0  0  0  0  0  0  0  0  0  0
  -20.0025   19.3961   31.5319 C   0  0  0  0  0  0  0  0  0  0  0  0
  -19.3351   19.4557   32.3565 H   0  0  0  0  0  0  0  0  0  0  0  0
  -19.7926   20.0759   30.3997 N   0  0  0  0  0  0  0  0  0  0  0  0
  -20.8044   19.7469   29.6499 C   0  0  0  0  0  0  0  0  0  0  0  0
  -21.0852   20.1690   28.3615 N   0  0  0  0  0  0  0  0  0  0  0  0
  -22.1534   19.7162   27.7903 C   0  0  0  0  0  0  0  0  0  0  0  0
  -22.4806   20.1588   26.3906 C   0  0  0  0  0  0  0  0  0  0  0  0
  -23.4102   19.7089   26.0344 H   0  0  0  0  0  0  0  0  0  0  0  0
  -21.6665   19.8678   25.7207 H   0  0  0  0  0  0  0  0  0  0  0  0
  -22.5847   21.2479   26.3721 H   0  0  0  0  0  0  0  0  0  0  0  0
  -23.0793   18.7681   28.4639 C   0  0  0  0  0  0  0  0  0  0  0  0
  -23.9425   18.4356   27.9589 H   0  0  0  0  0  0  0  0  0  0  0  0
  1  2  1  0
  1  9  1  0
  1 16  1  0
  2  3  1  0
  2  4  1  0
  2  5  1  0
  5  6  1  0
  5  7  1  0
  5  8  1  0
  9 10  1  0
  9 11  1  0
  9 12  1  0
 12 13  1  0
 12 14  1  0
 12 15  1  0
 16 17  1  0
 16 29  2  0
 17 18  1  0
 17 22  1  0
 18 19  2  0
 19 20  1  0
 19 21  1  0
 21 22  2  0
 22 23  1  0
 23 24  2  0
 24 25  1  0
 24 29  1  0
 25 26  1  0
 25 27  1  0
 25 28  1  0
 29 30  1  0
M  END
$$$$
