F217_93
     RDKit          3D

 28 29  0  0  0  0  0  0  0  0999 V2000
  -17.2315   14.7906   27.6422 O   0  0  0  0  0  0  0  0  0  0  0  0
  -17.8902   14.8842   26.6196 C   0  0  0  0  0  0  0  0  0  0  0  0
  -17.4514   15.6396   25.6326 N   0  0  0  0  0  0  0  0  0  0  0  0
  -16.5743   16.1104   25.7819 H   0  0  0  0  0  0  0  0  0  0  0  0
  -17.9734   15.7402   24.7798 H   0  0  0  0  0  0  0  0  0  0  0  0
  -19.2022   14.1838   26.3855 C   0  0  0  0  0  0  0  0  0  0  0  0
  -19.9808   14.9400   26.2358 H   0  0  0  0  0  0  0  0  0  0  0  0
  -19.1224   13.6053   25.4572 H   0  0  0  0  0  0  0  0  0  0  0  0
  -19.5539   13.2775   27.5577 C   0  0  0  0  0  0  0  0  0  0  0  0
  -19.7513   13.8608   28.4637 H   0  0  0  0  0  0  0  0  0  0  0  0
  -18.7261   12.5999   27.8008 H   0  0  0  0  0  0  0  0  0  0  0  0
  -20.7194   12.4619   27.2733 N   0  0  0  0  0  0  0  0  0  0  0  0
  -20.7583   11.3102   26.5217 C   0  0  0  0  0  0  0  0  0  0  0  0
  -19.5617   10.7236   25.8621 C   0  0  0  0  0  0  0  0  0  0  0  0
  -19.8114    9.7621   25.4035 H   0  0  0  0  0  0  0  0  0  0  0  0
  -18.7605   10.5517   26.5863 H   0  0  0  0  0  0  0  0  0  0  0  0
  -19.1932   11.3865   25.0735 H   0  0  0  0  0  0  0  0  0  0  0  0
  -21.9494   10.8139   26.4671 N   0  0  0  0  0  0  0  0  0  0  0  0
  -22.7423   11.6623   27.2076 C   0  0  0  0  0  0  0  0  0  0  0  0
  -21.9866   12.6990   27.7165 C   0  0  0  0  0  0  0  0  0  0  0  0
  -22.5307   13.7181   28.5119 C   0  0  0  0  0  0  0  0  0  0  0  0
  -21.9290   14.5054   28.8867 H   0  0  0  0  0  0  0  0  0  0  0  0
  -23.8877   13.6607   28.7900 C   0  0  0  0  0  0  0  0  0  0  0  0
  -24.3386   14.4100   29.3868 H   0  0  0  0  0  0  0  0  0  0  0  0
  -24.6785   12.6056   28.2804 C   0  0  0  0  0  0  0  0  0  0  0  0
  -25.7156   12.5769   28.5024 H   0  0  0  0  0  0  0  0  0  0  0  0
  -24.1132   11.6113   27.4935 C   0  0  0  0  0  0  0  0  0  0  0  0
  -24.6962   10.8189   27.1062 H   0  0  0  0  0  0  0  0  0  0  0  0
  1  2  2  0
  2  3  1  0
  2  6  1  0
  3  4  1  0
  3  5  1  0
  6  7  1  0
  6  8  1  0
  6  9  1  0
  9 10  1  0
  9 11  1  0
  9 12  1  0
 12 13  1  0
 12 20  1  0
 13 14  1  0
 13 18  2  0
 14 15  1  0
 14 16  1  0
 14 17  1  0
 18 19  1  0
 19 20  1  0
 19 27  2  0
 20 21  2  0
 21 22  1  0
 21 23  1  0
 23 24  1  0
 23 25  2  0
 25 26  1  0
 25 27  1  0
 27 28  1  0
M  END
$$$$
