F529_85
     RDKit          3D

 23 23  0  0  0  0  0  0  0  0999 V2000
  -18.6079   13.5419   23.6577 S   0  0  0  0  0  0  0  0  0  0  0  0
  -19.2361   12.5124   22.8453 O   0  0  0  0  0  0  0  0  0  0  0  0
  -18.6058   14.9266   23.2260 O   0  0  0  0  0  0  0  0  0  0  0  0
  -16.9288   13.0478   23.9447 C   0  0  0  0  0  0  0  0  0  0  0  0
  -16.9211   12.0441   24.3745 H   0  0  0  0  0  0  0  0  0  0  0  0
  -16.4535   13.7624   24.6195 H   0  0  0  0  0  0  0  0  0  0  0  0
  -16.4081   13.0438   22.9854 H   0  0  0  0  0  0  0  0  0  0  0  0
  -19.3286   13.4864   25.2744 C   0  0  0  0  0  0  0  0  0  0  0  0
  -19.3914   14.6079   26.1195 C   0  0  0  0  0  0  0  0  0  0  0  0
  -18.8565   15.8215   25.6946 N   0  0  0  0  0  0  0  0  0  0  0  0
  -18.4391   15.8427   24.7529 H   0  0  0  0  0  0  0  0  0  0  0  0
  -18.8106   17.0367   26.4712 C   0  0  0  0  0  0  0  0  0  0  0  0
  -19.8154   17.3523   26.7714 H   0  0  0  0  0  0  0  0  0  0  0  0
  -18.3762   17.8396   25.8672 H   0  0  0  0  0  0  0  0  0  0  0  0
  -18.1845   16.9145   27.3604 H   0  0  0  0  0  0  0  0  0  0  0  0
  -20.0142   14.5117   27.3710 C   0  0  0  0  0  0  0  0  0  0  0  0
  -20.0913   15.3579   28.0006 H   0  0  0  0  0  0  0  0  0  0  0  0
  -20.5376   13.2980   27.7962 C   0  0  0  0  0  0  0  0  0  0  0  0
  -21.0008   13.2243   28.7467 H   0  0  0  0  0  0  0  0  0  0  0  0
  -20.4529   12.1758   26.9787 C   0  0  0  0  0  0  0  0  0  0  0  0
  -20.8467   11.2475   27.3090 H   0  0  0  0  0  0  0  0  0  0  0  0
  -19.8548   12.2735   25.7259 C   0  0  0  0  0  0  0  0  0  0  0  0
  -19.7982   11.4152   25.1055 H   0  0  0  0  0  0  0  0  0  0  0  0
  1  2  2  0
  1  3  2  0
  1  4  1  0
  1  8  1  0
  4  5  1  0
  4  6  1  0
  4  7  1  0
  8  9  1  0
  8 22  2  0
  9 10  1  0
  9 16  2  0
 10 11  1  0
 10 12  1  0
 12 13  1  0
 12 14  1  0
 12 15  1  0
 16 17  1  0
 16 18  1  0
 18 19  1  0
 18 20  2  0
 20 21  1  0
 20 22  1  0
 22 23  1  0
M  END
$$$$
