F579_74
     RDKit          3D

 29 31  0  0  0  0  0  0  0  0999 V2000
  -23.9455   14.5099   30.1750 O   0  0  0  0  0  0  0  0  0  0  0  0
  -24.4418   13.4156   30.0274 C   0  0  0  0  0  0  0  0  0  0  0  0
  -23.8735   12.4727   29.2263 N   0  0  0  0  0  0  0  0  0  0  0  0
  -24.3730   11.5834   29.1424 H   0  0  0  0  0  0  0  0  0  0  0  0
  -22.7136   12.5249   28.4892 C   0  0  0  0  0  0  0  0  0  0  0  0
  -22.1486   11.1656   27.5669 S   0  0  0  0  0  0  0  0  0  0  0  0
  -20.8034   12.1313   27.0678 C   0  0  0  0  0  0  0  0  0  0  0  0
  -20.8999   13.3978   27.6427 C   0  0  0  0  0  0  0  0  0  0  0  0
  -22.0050   13.6094   28.4577 N   0  0  0  0  0  0  0  0  0  0  0  0
  -19.9022   14.3470   27.3654 C   0  0  0  0  0  0  0  0  0  0  0  0
  -19.9697   15.3098   27.7997 H   0  0  0  0  0  0  0  0  0  0  0  0
  -18.8430   14.0175   26.5319 C   0  0  0  0  0  0  0  0  0  0  0  0
  -18.0935   14.7359   26.3251 H   0  0  0  0  0  0  0  0  0  0  0  0
  -18.7719   12.7263   25.9623 C   0  0  0  0  0  0  0  0  0  0  0  0
  -17.7766   12.2880   25.1247 O   0  0  0  0  0  0  0  0  0  0  0  0
  -17.5143   13.0635   23.9609 C   0  0  0  0  0  0  0  0  0  0  0  0
  -17.1774   14.0712   24.2262 H   0  0  0  0  0  0  0  0  0  0  0  0
  -16.7035   12.5766   23.4106 H   0  0  0  0  0  0  0  0  0  0  0  0
  -18.3891   13.0972   23.3033 H   0  0  0  0  0  0  0  0  0  0  0  0
  -19.7434   11.7773   26.2222 C   0  0  0  0  0  0  0  0  0  0  0  0
  -19.6869   10.8100   25.7956 H   0  0  0  0  0  0  0  0  0  0  0  0
  -25.6871   13.0118   30.7163 C   0  0  0  0  0  0  0  0  0  0  0  0
  -25.5413   12.2207   31.4468 H   0  0  0  0  0  0  0  0  0  0  0  0
  -27.0205   13.0626   30.0083 C   0  0  0  0  0  0  0  0  0  0  0  0
  -27.0689   13.4319   28.9900 H   0  0  0  0  0  0  0  0  0  0  0  0
  -27.7423   12.2866   30.2323 H   0  0  0  0  0  0  0  0  0  0  0  0
  -26.7094   14.0593   31.0855 C   0  0  0  0  0  0  0  0  0  0  0  0
  -27.2162   13.9573   32.0374 H   0  0  0  0  0  0  0  0  0  0  0  0
  -26.5235   15.0869   30.7908 H   0  0  0  0  0  0  0  0  0  0  0  0
  1  2  2  0
  2  3  1  0
  2 22  1  0
  3  4  1  0
  3  5  1  0
  5  6  1  0
  5  9  2  0
  6  7  1  0
  7  8  1  0
  7 20  2  0
  8  9  1  0
  8 10  2  0
 10 11  1  0
 10 12  1  0
 12 13  1  0
 12 14  2  0
 14 15  1  0
 14 20  1  0
 15 16  1  0
 16 17  1  0
 16 18  1  0
 16 19  1  0
 20 21  1  0
 22 23  1  0
 22 24  1  0
 22 27  1  0
 24 25  1  0
 24 26  1  0
 24 27  1  0
 27 28  1  0
 27 29  1  0
M  END
$$$$
