F503_7
     RDKit          3D

 29 30  0  0  0  0  0  0  0  0999 V2000
  -25.7958   13.4459   27.3852 F   0  0  0  0  0  0  0  0  0  0  0  0
  -25.6290   13.6147   28.7058 C   0  0  0  0  0  0  0  0  0  0  0  0
  -24.3377   13.7067   29.2300 C   0  0  0  0  0  0  0  0  0  0  0  0
  -23.1221   13.6343   28.3406 C   0  0  0  0  0  0  0  0  0  0  0  0
  -22.3721   14.3671   28.6648 H   0  0  0  0  0  0  0  0  0  0  0  0
  -23.4191   13.9598   27.3344 H   0  0  0  0  0  0  0  0  0  0  0  0
  -22.4877   12.2490   28.2753 C   0  0  0  0  0  0  0  0  0  0  0  0
  -21.0061   12.2154   28.0738 C   0  0  0  0  0  0  0  0  0  0  0  0
  -20.2027   12.3715   28.9710 O   0  0  0  0  0  0  0  0  0  0  0  0
  -20.5665   12.0167   26.8068 N   0  0  0  0  0  0  0  0  0  0  0  0
  -21.2604   11.9412   26.0763 H   0  0  0  0  0  0  0  0  0  0  0  0
  -19.1703   11.9291   26.4612 C   0  0  0  0  0  0  0  0  0  0  0  0
  -18.6929   12.8926   26.6579 H   0  0  0  0  0  0  0  0  0  0  0  0
  -18.6927   11.1549   27.0667 H   0  0  0  0  0  0  0  0  0  0  0  0
  -19.0868   11.6795   25.4005 H   0  0  0  0  0  0  0  0  0  0  0  0
  -23.2823   11.0393   27.7739 C   0  0  0  0  0  0  0  0  0  0  0  0
  -22.7418   10.2431   27.2701 H   0  0  0  0  0  0  0  0  0  0  0  0
  -24.2942   11.1632   27.4081 H   0  0  0  0  0  0  0  0  0  0  0  0
  -23.0593   11.2066   29.2390 C   0  0  0  0  0  0  0  0  0  0  0  0
  -22.3713   10.5271   29.7302 H   0  0  0  0  0  0  0  0  0  0  0  0
  -23.9148   11.4702   29.8506 H   0  0  0  0  0  0  0  0  0  0  0  0
  -24.2024   13.8697   30.6091 C   0  0  0  0  0  0  0  0  0  0  0  0
  -23.2393   13.9396   31.0457 H   0  0  0  0  0  0  0  0  0  0  0  0
  -25.3317   13.9380   31.4260 C   0  0  0  0  0  0  0  0  0  0  0  0
  -25.2166   14.0622   32.4742 H   0  0  0  0  0  0  0  0  0  0  0  0
  -26.6105   13.8455   30.8779 C   0  0  0  0  0  0  0  0  0  0  0  0
  -27.4635   13.8985   31.5063 H   0  0  0  0  0  0  0  0  0  0  0  0
  -26.7635   13.6818   29.5051 C   0  0  0  0  0  0  0  0  0  0  0  0
  -27.7261   13.6086   29.0699 H   0  0  0  0  0  0  0  0  0  0  0  0
  1  2  1  0
  2  3  1  0
  2 28  2  0
  3  4  1  0
  3 22  2  0
  4  5  1  0
  4  6  1  0
  4  7  1  0
  7  8  1  0
  7 16  1  0
  7 19  1  0
  8  9  2  0
  8 10  1  0
 10 11  1  0
 10 12  1  0
 12 13  1  0
 12 14  1  0
 12 15  1  0
 16 17  1  0
 16 18  1  0
 16 19  1  0
 19 20  1  0
 19 21  1  0
 22 23  1  0
 22 24  1  0
 24 25  1  0
 24 26  2  0
 26 27  1  0
 26 28  1  0
 28 29  1  0
M  END
$$$$
