F579_41
     RDKit          3D

 29 31  0  0  0  0  0  0  0  0999 V2000
  -24.2693   17.1272   32.0319 O   0  0  0  0  0  0  0  0  0  0  0  0
  -23.7335   17.2799   30.9571 C   0  0  0  0  0  0  0  0  0  0  0  0
  -23.2984   16.2235   30.2165 N   0  0  0  0  0  0  0  0  0  0  0  0
  -22.8367   16.4461   29.3306 H   0  0  0  0  0  0  0  0  0  0  0  0
  -23.3742   14.8748   30.4746 C   0  0  0  0  0  0  0  0  0  0  0  0
  -24.0600   14.2575   31.9464 S   0  0  0  0  0  0  0  0  0  0  0  0
  -23.7344   12.6612   31.3659 C   0  0  0  0  0  0  0  0  0  0  0  0
  -23.1354   12.7353   30.1091 C   0  0  0  0  0  0  0  0  0  0  0  0
  -22.9352   14.0160   29.6091 N   0  0  0  0  0  0  0  0  0  0  0  0
  -22.7864   11.5437   29.4521 C   0  0  0  0  0  0  0  0  0  0  0  0
  -22.3306   11.5938   28.4983 H   0  0  0  0  0  0  0  0  0  0  0  0
  -23.0384   10.3194   30.0545 C   0  0  0  0  0  0  0  0  0  0  0  0
  -22.7743    9.4238   29.5558 H   0  0  0  0  0  0  0  0  0  0  0  0
  -23.6479   10.2749   31.3286 C   0  0  0  0  0  0  0  0  0  0  0  0
  -23.9467    9.1272   32.0197 O   0  0  0  0  0  0  0  0  0  0  0  0
  -22.9340    8.1308   32.0993 C   0  0  0  0  0  0  0  0  0  0  0  0
  -22.0520    8.5064   32.6290 H   0  0  0  0  0  0  0  0  0  0  0  0
  -23.3351    7.2919   32.6759 H   0  0  0  0  0  0  0  0  0  0  0  0
  -22.6704    7.7552   31.1052 H   0  0  0  0  0  0  0  0  0  0  0  0
  -23.9994   11.4359   31.9923 C   0  0  0  0  0  0  0  0  0  0  0  0
  -24.4543   11.4000   32.9476 H   0  0  0  0  0  0  0  0  0  0  0  0
  -23.5273   18.6167   30.3582 C   0  0  0  0  0  0  0  0  0  0  0  0
  -22.6199   19.1086   30.6981 H   0  0  0  0  0  0  0  0  0  0  0  0
  -24.6998   19.4990   30.0000 C   0  0  0  0  0  0  0  0  0  0  0  0
  -25.7086   19.1325   30.1542 H   0  0  0  0  0  0  0  0  0  0  0  0
  -24.5908   20.5674   30.1408 H   0  0  0  0  0  0  0  0  0  0  0  0
  -23.8936   18.8518   28.9129 C   0  0  0  0  0  0  0  0  0  0  0  0
  -23.2380   19.4790   28.3211 H   0  0  0  0  0  0  0  0  0  0  0  0
  -24.3475   18.0377   28.3575 H   0  0  0  0  0  0  0  0  0  0  0  0
  1  2  2  0
  2  3  1  0
  2 22  1  0
  3  4  1  0
  3  5  1  0
  5  6  1  0
  5  9  2  0
  6  7  1  0
  7  8  1  0
  7 20  2  0
  8  9  1  0
  8 10  2  0
 10 11  1  0
 10 12  1  0
 12 13  1  0
 12 14  2  0
 14 15  1  0
 14 20  1  0
 15 16  1  0
 16 17  1  0
 16 18  1  0
 16 19  1  0
 20 21  1  0
 22 23  1  0
 22 24  1  0
 22 27  1  0
 24 25  1  0
 24 26  1  0
 24 27  1  0
 27 28  1  0
 27 29  1  0
M  END
$$$$
