F618_37
     RDKit          3D

 26 26  0  0  0  0  0  0  0  0999 V2000
  -23.8488   16.0612   32.5117 F   0  0  0  0  0  0  0  0  0  0  0  0
  -23.5455   14.7659   32.3337 C   0  0  0  0  0  0  0  0  0  0  0  0
  -23.9756   14.0449   31.2047 C   0  0  0  0  0  0  0  0  0  0  0  0
  -24.7247   14.6449   30.1798 N   0  0  0  0  0  0  0  0  0  0  0  0
  -25.7238   13.8056   29.4772 C   0  0  0  0  0  0  0  0  0  0  0  0
  -25.1824   13.3165   28.1211 C   0  0  0  0  0  0  0  0  0  0  0  0
  -25.7869   12.4836   27.7459 H   0  0  0  0  0  0  0  0  0  0  0  0
  -24.1498   12.9631   28.2035 H   0  0  0  0  0  0  0  0  0  0  0  0
  -25.2071   14.3507   27.1394 O   0  0  0  0  0  0  0  0  0  0  0  0
  -24.7832   13.9598   26.3544 H   0  0  0  0  0  0  0  0  0  0  0  0
  -27.0728   14.5165   29.3132 C   0  0  0  0  0  0  0  0  0  0  0  0
  -27.8312   13.8068   28.9636 H   0  0  0  0  0  0  0  0  0  0  0  0
  -27.0357   15.3275   28.5801 H   0  0  0  0  0  0  0  0  0  0  0  0
  -27.4169   14.9299   30.2663 H   0  0  0  0  0  0  0  0  0  0  0  0
  -24.5260   16.0444   29.8322 C   0  0  0  0  0  0  0  0  0  0  0  0
  -24.9870   16.6985   30.5796 H   0  0  0  0  0  0  0  0  0  0  0  0
  -24.9594   16.2986   28.8605 H   0  0  0  0  0  0  0  0  0  0  0  0
  -23.4597   16.2836   29.7415 H   0  0  0  0  0  0  0  0  0  0  0  0
  -23.6755   12.7460   31.0512 N   0  0  0  0  0  0  0  0  0  0  0  0
  -22.9651   12.1341   32.0071 C   0  0  0  0  0  0  0  0  0  0  0  0
  -22.7415   11.1071   31.8722 H   0  0  0  0  0  0  0  0  0  0  0  0
  -22.5201   12.7971   33.1525 C   0  0  0  0  0  0  0  0  0  0  0  0
  -21.9612   12.2732   33.8833 H   0  0  0  0  0  0  0  0  0  0  0  0
  -22.8120   14.1472   33.3282 C   0  0  0  0  0  0  0  0  0  0  0  0
  -22.4889   14.6838   34.1823 H   0  0  0  0  0  0  0  0  0  0  0  0
  -25.9527   12.9207   30.0863 H   0  0  0  0  0  0  0  0  0  0  0  0
  1  2  1  0
  2  3  1  0
  2 24  2  0
  3  4  1  0
  3 19  2  0
  4  5  1  0
  4 15  1  0
  5  6  1  0
  5 11  1  0
  5 26  1  0
  6  7  1  0
  6  8  1  0
  6  9  1  0
  9 10  1  0
 11 12  1  0
 11 13  1  0
 11 14  1  0
 15 16  1  0
 15 17  1  0
 15 18  1  0
 19 20  1  0
 20 21  1  0
 20 22  2  0
 22 23  1  0
 22 24  1  0
 24 25  1  0
M  END
$$$$
