F603_21
     RDKit          3D

 24 25  0  0  0  0  0  0  0  0999 V2000
  -23.7131   11.9459   28.2142 S   0  0  0  0  0  0  0  0  0  0  0  0
  -24.8082   11.9230   29.1635 O   0  0  0  0  0  0  0  0  0  0  0  0
  -23.2190   10.7151   27.6188 O   0  0  0  0  0  0  0  0  0  0  0  0
  -22.3221   12.7860   28.9541 C   0  0  0  0  0  0  0  0  0  0  0  0
  -22.6829   13.7319   29.3676 H   0  0  0  0  0  0  0  0  0  0  0  0
  -21.9390   12.1525   29.7587 H   0  0  0  0  0  0  0  0  0  0  0  0
  -21.2790   13.0368   27.9225 C   0  0  0  0  0  0  0  0  0  0  0  0
  -21.0888   12.2187   26.8421 N   0  0  0  0  0  0  0  0  0  0  0  0
  -21.5969   11.3464   26.6377 H   0  0  0  0  0  0  0  0  0  0  0  0
  -20.1046   12.7524   26.0776 C   0  0  0  0  0  0  0  0  0  0  0  0
  -19.7297   13.9028   26.7400 C   0  0  0  0  0  0  0  0  0  0  0  0
  -20.4812   14.0521   27.8865 N   0  0  0  0  0  0  0  0  0  0  0  0
  -18.7139   14.7005   26.1969 C   0  0  0  0  0  0  0  0  0  0  0  0
  -18.4199   15.5838   26.7007 H   0  0  0  0  0  0  0  0  0  0  0  0
  -18.1104   14.3129   25.0073 C   0  0  0  0  0  0  0  0  0  0  0  0
  -17.3406   14.9079   24.5880 H   0  0  0  0  0  0  0  0  0  0  0  0
  -18.5134   13.1289   24.3467 C   0  0  0  0  0  0  0  0  0  0  0  0
  -18.0397   12.8517   23.4387 H   0  0  0  0  0  0  0  0  0  0  0  0
  -19.5171   12.3337   24.8760 C   0  0  0  0  0  0  0  0  0  0  0  0
  -19.8281   11.4438   24.3923 H   0  0  0  0  0  0  0  0  0  0  0  0
  -24.1726   13.0363   26.8914 C   0  0  0  0  0  0  0  0  0  0  0  0
  -24.4503   14.0037   27.3132 H   0  0  0  0  0  0  0  0  0  0  0  0
  -25.0244   12.5973   26.3679 H   0  0  0  0  0  0  0  0  0  0  0  0
  -23.3270   13.1395   26.2080 H   0  0  0  0  0  0  0  0  0  0  0  0
  1  2  2  0
  1  3  2  0
  1  4  1  0
  1 21  1  0
  4  5  1  0
  4  6  1  0
  4  7  1  0
  7  8  1  0
  7 12  2  0
  8  9  1  0
  8 10  1  0
 10 11  1  0
 10 19  2  0
 11 12  1  0
 11 13  2  0
 13 14  1  0
 13 15  1  0
 15 16  1  0
 15 17  2  0
 17 18  1  0
 17 19  1  0
 19 20  1  0
 21 22  1  0
 21 23  1  0
 21 24  1  0
M  END
$$$$
