F229_68
     RDKit          3D

 27 28  0  0  0  0  0  0  0  0999 V2000
  -23.4570   13.7271   28.1580 F   0  0  0  0  0  0  0  0  0  0  0  0
  -23.3351   13.0524   29.3124 C   0  0  0  0  0  0  0  0  0  0  0  0
  -23.3217   13.7295   30.5484 C   0  0  0  0  0  0  0  0  0  0  0  0
  -23.4353   15.1082   30.6737 N   0  0  0  0  0  0  0  0  0  0  0  0
  -22.5917   15.6582   30.7856 H   0  0  0  0  0  0  0  0  0  0  0  0
  -24.6921   15.8358   30.6475 C   0  0  0  0  0  0  0  0  0  0  0  0
  -25.4526   15.2669   31.1964 H   0  0  0  0  0  0  0  0  0  0  0  0
  -24.5725   16.7967   31.1623 H   0  0  0  0  0  0  0  0  0  0  0  0
  -25.2116   16.1085   29.2689 C   0  0  0  0  0  0  0  0  0  0  0  0
  -26.1921   15.3911   28.5866 C   0  0  0  0  0  0  0  0  0  0  0  0
  -26.9475   14.1984   29.0394 C   0  0  0  0  0  0  0  0  0  0  0  0
  -27.4133   14.3850   30.0128 H   0  0  0  0  0  0  0  0  0  0  0  0
  -26.2770   13.3382   29.1380 H   0  0  0  0  0  0  0  0  0  0  0  0
  -27.7414   13.9294   28.3348 H   0  0  0  0  0  0  0  0  0  0  0  0
  -26.4112   15.9051   27.4092 N   0  0  0  0  0  0  0  0  0  0  0  0
  -25.5714   16.9658   27.3260 N   0  0  0  0  0  0  0  0  0  0  0  0
  -25.5214   17.5782   26.4903 H   0  0  0  0  0  0  0  0  0  0  0  0
  -24.8333   17.1132   28.4450 C   0  0  0  0  0  0  0  0  0  0  0  0
  -24.1259   17.8919   28.5608 H   0  0  0  0  0  0  0  0  0  0  0  0
  -23.2020   12.9779   31.7187 C   0  0  0  0  0  0  0  0  0  0  0  0
  -23.2046   13.4640   32.6588 H   0  0  0  0  0  0  0  0  0  0  0  0
  -23.0806   11.5909   31.6489 C   0  0  0  0  0  0  0  0  0  0  0  0
  -22.9867   11.0251   32.5411 H   0  0  0  0  0  0  0  0  0  0  0  0
  -23.0836   10.9355   30.4154 C   0  0  0  0  0  0  0  0  0  0  0  0
  -22.9908    9.8800   30.3751 H   0  0  0  0  0  0  0  0  0  0  0  0
  -23.2137   11.6719   29.2397 C   0  0  0  0  0  0  0  0  0  0  0  0
  -23.2240   11.1862   28.2974 H   0  0  0  0  0  0  0  0  0  0  0  0
  1  2  1  0
  2  3  1  0
  2 26  2  0
  3  4  1  0
  3 20  2  0
  4  5  1  0
  4  6  1  0
  6  7  1  0
  6  8  1  0
  6  9  1  0
  9 10  1  0
  9 18  2  0
 10 11  1  0
 10 15  2  0
 11 12  1  0
 11 13  1  0
 11 14  1  0
 15 16  1  0
 16 17  1  0
 16 18  1  0
 18 19  1  0
 20 21  1  0
 20 22  1  0
 22 23  1  0
 22 24  2  0
 24 25  1  0
 24 26  1  0
 26 27  1  0
M  END
$$$$
