F389_98
     RDKit          3D

 18 18  0  0  0  0  0  0  0  0999 V2000
  -24.7567   15.8704   28.6076 O   0  0  0  0  0  0  0  0  0  0  0  0
  -24.2437   14.8016   28.9065 C   0  0  0  0  0  0  0  0  0  0  0  0
  -23.5254   14.5750   30.0465 O   0  0  0  0  0  0  0  0  0  0  0  0
  -23.5861   15.5993   31.0514 C   0  0  0  0  0  0  0  0  0  0  0  0
  -23.3607   16.5489   30.5545 H   0  0  0  0  0  0  0  0  0  0  0  0
  -22.8204   15.4476   31.8202 H   0  0  0  0  0  0  0  0  0  0  0  0
  -24.9762   15.6556   31.6546 C   0  0  0  0  0  0  0  0  0  0  0  0
  -25.2244   14.7157   32.1578 H   0  0  0  0  0  0  0  0  0  0  0  0
  -25.7290   15.8060   30.8739 H   0  0  0  0  0  0  0  0  0  0  0  0
  -25.0519   16.4711   32.3794 H   0  0  0  0  0  0  0  0  0  0  0  0
  -24.3374   13.6237   28.0634 C   0  0  0  0  0  0  0  0  0  0  0  0
  -25.4007   12.7795   27.9336 C   0  0  0  0  0  0  0  0  0  0  0  0
  -26.3580   12.7785   28.3879 H   0  0  0  0  0  0  0  0  0  0  0  0
  -25.0213   11.8435   27.0481 N   0  0  0  0  0  0  0  0  0  0  0  0
  -25.6096   11.0483   26.7297 H   0  0  0  0  0  0  0  0  0  0  0  0
  -23.7531   12.0485   26.5990 N   0  0  0  0  0  0  0  0  0  0  0  0
  -23.3480   13.1227   27.2160 C   0  0  0  0  0  0  0  0  0  0  0  0
  -22.3856   13.5481   27.0783 H   0  0  0  0  0  0  0  0  0  0  0  0
  1  2  2  0
  2  3  1  0
  2 11  1  0
  3  4  1  0
  4  5  1  0
  4  6  1  0
  4  7  1  0
  7  8  1  0
  7  9  1  0
  7 10  1  0
 11 12  2  0
 11 17  1  0
 12 13  1  0
 12 14  1  0
 14 15  1  0
 14 16  1  0
 16 17  2  0
 17 18  1  0
M  END
$$$$
