F368_92
     RDKit          3D

 29 30  0  0  0  0  0  0  0  0999 V2000
  -20.2967   12.5921   29.0028 O   0  0  0  0  0  0  0  0  0  0  0  0
  -20.4858   12.3346   27.8287 C   0  0  0  0  0  0  0  0  0  0  0  0
  -21.7525   12.1666   27.3393 N   0  0  0  0  0  0  0  0  0  0  0  0
  -21.8091   11.9401   26.3397 H   0  0  0  0  0  0  0  0  0  0  0  0
  -22.9530   12.2617   28.0312 C   0  0  0  0  0  0  0  0  0  0  0  0
  -23.1279   12.4489   29.3557 C   0  0  0  0  0  0  0  0  0  0  0  0
  -22.4402   12.5652   30.1500 H   0  0  0  0  0  0  0  0  0  0  0  0
  -24.4728   12.4687   29.5295 N   0  0  0  0  0  0  0  0  0  0  0  0
  -25.2014   12.6363   30.7682 C   0  0  0  0  0  0  0  0  0  0  0  0
  -25.2707   11.6531   31.2477 H   0  0  0  0  0  0  0  0  0  0  0  0
  -24.6074   13.2858   31.4200 H   0  0  0  0  0  0  0  0  0  0  0  0
  -26.5818   13.2278   30.5467 C   0  0  0  0  0  0  0  0  0  0  0  0
  -27.1017   13.3478   31.5020 H   0  0  0  0  0  0  0  0  0  0  0  0
  -26.5164   14.2093   30.0664 H   0  0  0  0  0  0  0  0  0  0  0  0
  -27.1903   12.5817   29.9054 H   0  0  0  0  0  0  0  0  0  0  0  0
  -25.1473   12.3042   28.3530 N   0  0  0  0  0  0  0  0  0  0  0  0
  -24.2126   12.1776   27.4470 C   0  0  0  0  0  0  0  0  0  0  0  0
  -24.4132   12.0317   26.4173 H   0  0  0  0  0  0  0  0  0  0  0  0
  -19.3626   12.1603   26.7637 C   0  0  0  0  0  0  0  0  0  0  0  0
  -18.7768   11.2417   26.9204 H   0  0  0  0  0  0  0  0  0  0  0  0
  -19.7733   12.2998   25.2718 C   0  0  0  0  0  0  0  0  0  0  0  0
  -20.6385   12.9488   25.0978 H   0  0  0  0  0  0  0  0  0  0  0  0
  -19.9219   11.3596   24.7330 H   0  0  0  0  0  0  0  0  0  0  0  0
  -18.4196   12.9930   25.0288 C   0  0  0  0  0  0  0  0  0  0  0  0
  -18.4319   13.8276   24.3238 H   0  0  0  0  0  0  0  0  0  0  0  0
  -17.6145   12.3022   24.7535 H   0  0  0  0  0  0  0  0  0  0  0  0
  -18.4235   13.3745   26.5213 C   0  0  0  0  0  0  0  0  0  0  0  0
  -18.8815   14.3497   26.7254 H   0  0  0  0  0  0  0  0  0  0  0  0
  -17.4521   13.3282   27.0200 H   0  0  0  0  0  0  0  0  0  0  0  0
  1  2  2  0
  2  3  1  0
  2 19  1  0
  3  4  1  0
  3  5  1  0
  5  6  2  0
  5 17  1  0
  6  7  1  0
  6  8  1  0
  8  9  1  0
  8 16  1  0
  9 10  1  0
  9 11  1  0
  9 12  1  0
 12 13  1  0
 12 14  1  0
 12 15  1  0
 16 17  2  0
 17 18  1  0
 19 20  1  0
 19 21  1  0
 19 27  1  0
 21 22  1  0
 21 23  1  0
 21 24  1  0
 24 25  1  0
 24 26  1  0
 24 27  1  0
 27 28  1  0
 27 29  1  0
M  END
$$$$
