F687_88
     RDKit          3D

 24 25  0  0  0  0  0  0  0  0999 V2000
  -19.5194   15.0987   27.5712 F   0  0  0  0  0  0  0  0  0  0  0  0
  -19.6020   14.0654   26.7190 C   0  0  0  0  0  0  0  0  0  0  0  0
  -20.2035   12.8535   27.1135 C   0  0  0  0  0  0  0  0  0  0  0  0
  -20.7419   12.6371   28.3692 N   0  0  0  0  0  0  0  0  0  0  0  0
  -20.2321   12.1059   29.0687 H   0  0  0  0  0  0  0  0  0  0  0  0
  -22.0393   13.1129   28.8271 C   0  0  0  0  0  0  0  0  0  0  0  0
  -22.2710   12.6542   29.7968 H   0  0  0  0  0  0  0  0  0  0  0  0
  -21.9970   14.1997   28.9670 H   0  0  0  0  0  0  0  0  0  0  0  0
  -23.1883   12.8194   27.9018 C   0  0  0  0  0  0  0  0  0  0  0  0
  -23.4008   11.6117   27.4374 N   0  0  0  0  0  0  0  0  0  0  0  0
  -24.5029   11.7266   26.6495 N   0  0  0  0  0  0  0  0  0  0  0  0
  -24.9156   10.9246   26.1384 H   0  0  0  0  0  0  0  0  0  0  0  0
  -24.9764   12.9897   26.6239 C   0  0  0  0  0  0  0  0  0  0  0  0
  -25.8324   13.2693   26.0657 H   0  0  0  0  0  0  0  0  0  0  0  0
  -24.1508   13.7019   27.4209 C   0  0  0  0  0  0  0  0  0  0  0  0
  -24.2237   14.7362   27.6449 H   0  0  0  0  0  0  0  0  0  0  0  0
  -20.2545   11.8050   26.1917 C   0  0  0  0  0  0  0  0  0  0  0  0
  -20.6882   10.8798   26.4695 H   0  0  0  0  0  0  0  0  0  0  0  0
  -19.7327   11.9754   24.9092 C   0  0  0  0  0  0  0  0  0  0  0  0
  -19.7782   11.1767   24.2142 H   0  0  0  0  0  0  0  0  0  0  0  0
  -19.1522   13.1880   24.5313 C   0  0  0  0  0  0  0  0  0  0  0  0
  -18.7603   13.3060   23.5534 H   0  0  0  0  0  0  0  0  0  0  0  0
  -19.0851   14.2395   25.4437 C   0  0  0  0  0  0  0  0  0  0  0  0
  -18.6406   15.1616   25.1721 H   0  0  0  0  0  0  0  0  0  0  0  0
  1  2  1  0
  2  3  1  0
  2 23  2  0
  3  4  1  0
  3 17  2  0
  4  5  1  0
  4  6  1  0
  6  7  1  0
  6  8  1  0
  6  9  1  0
  9 10  2  0
  9 15  1  0
 10 11  1  0
 11 12  1  0
 11 13  1  0
 13 14  1  0
 13 15  2  0
 15 16  1  0
 17 18  1  0
 17 19  1  0
 19 20  1  0
 19 21  2  0
 21 22  1  0
 21 23  1  0
 23 24  1  0
M  END
$$$$
