F558_98
     RDKit          3D

 32 33  0  0  0  0  0  0  0  0999 V2000
  -16.4914   16.5431   27.8213 O   0  0  0  0  0  0  0  0  0  0  0  0
  -16.4697   16.6049   26.6009 C   0  0  0  0  0  0  0  0  0  0  0  0
  -15.7311   17.4812   25.8704 O   0  0  0  0  0  0  0  0  0  0  0  0
  -14.6180   18.0424   26.5700 C   0  0  0  0  0  0  0  0  0  0  0  0
  -13.9297   17.2544   26.8894 H   0  0  0  0  0  0  0  0  0  0  0  0
  -14.9637   18.6275   27.4287 H   0  0  0  0  0  0  0  0  0  0  0  0
  -14.0896   18.7101   25.8846 H   0  0  0  0  0  0  0  0  0  0  0  0
  -17.2034   15.8269   25.7589 N   0  0  0  0  0  0  0  0  0  0  0  0
  -17.1003   16.0818   24.7723 H   0  0  0  0  0  0  0  0  0  0  0  0
  -18.0721   14.7553   26.0591 C   0  0  0  0  0  0  0  0  0  0  0  0
  -19.0881   14.3306   25.1996 C   0  0  0  0  0  0  0  0  0  0  0  0
  -19.2500   14.8150   24.2736 H   0  0  0  0  0  0  0  0  0  0  0  0
  -19.8989   13.2646   25.5743 C   0  0  0  0  0  0  0  0  0  0  0  0
  -20.6708   12.9439   24.9219 H   0  0  0  0  0  0  0  0  0  0  0  0
  -19.7084   12.6211   26.7988 C   0  0  0  0  0  0  0  0  0  0  0  0
  -20.6078   11.4765   27.2085 C   0  0  0  0  0  0  0  0  0  0  0  0
  -20.1416   10.9275   28.0374 H   0  0  0  0  0  0  0  0  0  0  0  0
  -20.6729   10.7427   26.3942 H   0  0  0  0  0  0  0  0  0  0  0  0
  -21.9957   11.9160   27.6007 C   0  0  0  0  0  0  0  0  0  0  0  0
  -22.6003   11.4495   28.7620 C   0  0  0  0  0  0  0  0  0  0  0  0
  -22.0879   10.7855   29.4075 H   0  0  0  0  0  0  0  0  0  0  0  0
  -23.8915   11.8572   29.0816 C   0  0  0  0  0  0  0  0  0  0  0  0
  -24.3606   11.5047   29.9657 H   0  0  0  0  0  0  0  0  0  0  0  0
  -24.5783   12.6902   28.3029 N   0  0  0  0  0  0  0  0  0  0  0  0
  -24.0206   13.1482   27.1836 C   0  0  0  0  0  0  0  0  0  0  0  0
  -24.5899   13.8081   26.5780 H   0  0  0  0  0  0  0  0  0  0  0  0
  -22.7339   12.7815   26.8025 C   0  0  0  0  0  0  0  0  0  0  0  0
  -22.3245   13.1606   25.9017 H   0  0  0  0  0  0  0  0  0  0  0  0
  -18.6969   13.0635   27.6549 C   0  0  0  0  0  0  0  0  0  0  0  0
  -18.5444   12.5871   28.5891 H   0  0  0  0  0  0  0  0  0  0  0  0
  -17.8803   14.1286   27.2901 C   0  0  0  0  0  0  0  0  0  0  0  0
  -17.1121   14.4568   27.9413 H   0  0  0  0  0  0  0  0  0  0  0  0
  1  2  2  0
  2  3  1  0
  2  8  1  0
  3  4  1  0
  4  5  1  0
  4  6  1  0
  4  7  1  0
  8  9  1  0
  8 10  1  0
 10 11  1  0
 10 31  2  0
 11 12  1  0
 11 13  2  0
 13 14  1  0
 13 15  1  0
 15 16  1  0
 15 29  2  0
 16 17  1  0
 16 18  1  0
 16 19  1  0
 19 20  1  0
 19 27  2  0
 20 21  1  0
 20 22  2  0
 22 23  1  0
 22 24  1  0
 24 25  2  0
 25 26  1  0
 25 27  1  0
 27 28  1  0
 29 30  1  0
 29 31  1  0
 31 32  1  0
M  END
$$$$
