F13_7
     RDKit          3D

 16 16  0  0  0  0  0  0  0  0999 V2000
  -22.5690   10.6785   32.8240 Br  0  0  0  0  0  0  0  0  0  0  0  0
  -22.9410   11.4322   31.1568 C   0  0  0  0  0  0  0  0  0  0  0  0
  -22.9639   10.8193   29.9549 C   0  0  0  0  0  0  0  0  0  0  0  0
  -22.7931    9.8138   29.6720 H   0  0  0  0  0  0  0  0  0  0  0  0
  -23.2840   11.7817   29.0594 N   0  0  0  0  0  0  0  0  0  0  0  0
  -23.4290   11.6537   27.6227 C   0  0  0  0  0  0  0  0  0  0  0  0
  -22.4687   11.9376   27.1782 H   0  0  0  0  0  0  0  0  0  0  0  0
  -23.6145   10.5954   27.4078 H   0  0  0  0  0  0  0  0  0  0  0  0
  -24.5482   12.5319   27.0861 C   0  0  0  0  0  0  0  0  0  0  0  0
  -24.2439   13.5818   27.1204 H   0  0  0  0  0  0  0  0  0  0  0  0
  -25.4737   12.4125   27.6592 H   0  0  0  0  0  0  0  0  0  0  0  0
  -24.8073   12.2053   25.7241 O   0  0  0  0  0  0  0  0  0  0  0  0
  -25.2527   11.3398   25.7163 H   0  0  0  0  0  0  0  0  0  0  0  0
  -23.4714   12.9900   29.6577 N   0  0  0  0  0  0  0  0  0  0  0  0
  -23.2587   12.7665   30.9285 C   0  0  0  0  0  0  0  0  0  0  0  0
  -23.3257   13.5175   31.6728 H   0  0  0  0  0  0  0  0  0  0  0  0
  1  2  1  0
  2  3  2  0
  2 15  1  0
  3  4  1  0
  3  5  1  0
  5  6  1  0
  5 14  1  0
  6  7  1  0
  6  8  1  0
  6  9  1  0
  9 10  1  0
  9 11  1  0
  9 12  1  0
 12 13  1  0
 14 15  2  0
 15 16  1  0
M  END
$$$$
