F389_20
     RDKit          3D

 18 18  0  0  0  0  0  0  0  0999 V2000
  -25.4160   15.7769   27.3862 O   0  0  0  0  0  0  0  0  0  0  0  0
  -24.8197   15.0480   28.1659 C   0  0  0  0  0  0  0  0  0  0  0  0
  -24.2819   15.4542   29.3545 O   0  0  0  0  0  0  0  0  0  0  0  0
  -24.5110   16.8235   29.7220 C   0  0  0  0  0  0  0  0  0  0  0  0
  -25.5960   16.9684   29.7565 H   0  0  0  0  0  0  0  0  0  0  0  0
  -24.1177   17.5095   28.9636 H   0  0  0  0  0  0  0  0  0  0  0  0
  -23.9145   17.1033   31.0878 C   0  0  0  0  0  0  0  0  0  0  0  0
  -22.8287   16.9647   31.0779 H   0  0  0  0  0  0  0  0  0  0  0  0
  -24.3162   16.4091   31.8330 H   0  0  0  0  0  0  0  0  0  0  0  0
  -24.1337   18.1268   31.4047 H   0  0  0  0  0  0  0  0  0  0  0  0
  -24.6060   13.6350   27.9114 C   0  0  0  0  0  0  0  0  0  0  0  0
  -25.0849   12.8988   26.8680 C   0  0  0  0  0  0  0  0  0  0  0  0
  -25.6913   13.1629   26.0402 H   0  0  0  0  0  0  0  0  0  0  0  0
  -24.6277   11.6502   27.0582 N   0  0  0  0  0  0  0  0  0  0  0  0
  -24.8171   10.8423   26.4328 H   0  0  0  0  0  0  0  0  0  0  0  0
  -23.8709   11.5488   28.1848 N   0  0  0  0  0  0  0  0  0  0  0  0
  -23.8632   12.7489   28.6932 C   0  0  0  0  0  0  0  0  0  0  0  0
  -23.3513   13.0015   29.5877 H   0  0  0  0  0  0  0  0  0  0  0  0
  1  2  2  0
  2  3  1  0
  2 11  1  0
  3  4  1  0
  4  5  1  0
  4  6  1  0
  4  7  1  0
  7  8  1  0
  7  9  1  0
  7 10  1  0
 11 12  2  0
 11 17  1  0
 12 13  1  0
 12 14  1  0
 14 15  1  0
 14 16  1  0
 16 17  2  0
 17 18  1  0
M  END
$$$$
