F5_73
     RDKit          3D

 21 21  0  0  0  0  0  0  0  0999 V2000
  -21.5002   11.9360   27.3971 Br  0  0  0  0  0  0  0  0  0  0  0  0
  -22.7083   12.5545   28.7157 C   0  0  0  0  0  0  0  0  0  0  0  0
  -23.6212   13.5579   28.4094 C   0  0  0  0  0  0  0  0  0  0  0  0
  -23.6491   13.9856   27.4435 H   0  0  0  0  0  0  0  0  0  0  0  0
  -24.5018   14.0062   29.3893 C   0  0  0  0  0  0  0  0  0  0  0  0
  -25.3668   15.0111   29.0422 O   0  0  0  0  0  0  0  0  0  0  0  0
  -26.4988   14.6471   28.2158 C   0  0  0  0  0  0  0  0  0  0  0  0
  -26.9777   15.5633   27.8743 H   0  0  0  0  0  0  0  0  0  0  0  0
  -27.1826   14.0509   28.8183 H   0  0  0  0  0  0  0  0  0  0  0  0
  -26.1449   14.0663   27.3645 H   0  0  0  0  0  0  0  0  0  0  0  0
  -24.5019   13.4561   30.6786 C   0  0  0  0  0  0  0  0  0  0  0  0
  -25.4809   13.8960   31.7677 C   0  0  0  0  0  0  0  0  0  0  0  0
  -25.7821   13.0311   32.3380 H   0  0  0  0  0  0  0  0  0  0  0  0
  -26.3229   14.4220   31.3497 H   0  0  0  0  0  0  0  0  0  0  0  0
  -24.7705   14.8366   32.7148 C   0  0  0  0  0  0  0  0  0  0  0  0
  -24.9290   16.0651   32.5336 O   0  0  0  0  0  0  0  0  0  0  0  0
  -24.0279   14.3363   33.5887 O   0  0  0  0  0  0  0  0  0  0  0  0
  -23.5748   12.4566   30.9691 C   0  0  0  0  0  0  0  0  0  0  0  0
  -23.5459   12.0425   31.9470 H   0  0  0  0  0  0  0  0  0  0  0  0
  -22.6835   12.0074   29.9977 C   0  0  0  0  0  0  0  0  0  0  0  0
  -21.9833   11.2503   30.2370 H   0  0  0  0  0  0  0  0  0  0  0  0
  1  2  1  0
  2  3  1  0
  2 20  2  0
  3  4  1  0
  3  5  2  0
  5  6  1  0
  5 11  1  0
  6  7  1  0
  7  8  1  0
  7  9  1  0
  7 10  1  0
 11 12  1  0
 11 18  2  0
 12 13  1  0
 12 14  1  0
 12 15  1  0
 15 16  1  0
 15 17  2  0
 18 19  1  0
 18 20  1  0
 20 21  1  0
M  END
$$$$
