F199_31
     RDKit          3D

 25 26  0  0  0  0  0  0  0  0999 V2000
  -21.9814   11.7579   29.9711 O   0  0  0  0  0  0  0  0  0  0  0  0
  -21.8869   12.4617   28.9678 C   0  0  0  0  0  0  0  0  0  0  0  0
  -22.9717   13.2007   28.5628 N   0  0  0  0  0  0  0  0  0  0  0  0
  -22.8004   13.7588   27.7147 H   0  0  0  0  0  0  0  0  0  0  0  0
  -24.2198   13.2647   29.1560 C   0  0  0  0  0  0  0  0  0  0  0  0
  -25.1911   14.0758   28.6900 C   0  0  0  0  0  0  0  0  0  0  0  0
  -25.2191   14.7535   27.8790 H   0  0  0  0  0  0  0  0  0  0  0  0
  -26.2459   13.8631   29.5153 N   0  0  0  0  0  0  0  0  0  0  0  0
  -27.5469   14.4785   29.4647 C   0  0  0  0  0  0  0  0  0  0  0  0
  -27.5791   15.1957   28.6412 H   0  0  0  0  0  0  0  0  0  0  0  0
  -27.7237   14.9914   30.4135 H   0  0  0  0  0  0  0  0  0  0  0  0
  -28.2928   13.6956   29.3070 H   0  0  0  0  0  0  0  0  0  0  0  0
  -25.9696   12.9478   30.4822 N   0  0  0  0  0  0  0  0  0  0  0  0
  -24.7314   12.5836   30.2599 C   0  0  0  0  0  0  0  0  0  0  0  0
  -24.2142   11.8711   30.8488 H   0  0  0  0  0  0  0  0  0  0  0  0
  -20.6959   12.5840   28.1517 C   0  0  0  0  0  0  0  0  0  0  0  0
  -19.4959   12.3580   28.6253 N   0  0  0  0  0  0  0  0  0  0  0  0
  -18.6365   12.5568   27.6301 O   0  0  0  0  0  0  0  0  0  0  0  0
  -19.2831   12.9115   26.5152 C   0  0  0  0  0  0  0  0  0  0  0  0
  -18.4669   13.1689   25.3184 C   0  0  0  0  0  0  0  0  0  0  0  0
  -19.0935   13.4588   24.4695 H   0  0  0  0  0  0  0  0  0  0  0  0
  -17.9061   12.2723   25.0372 H   0  0  0  0  0  0  0  0  0  0  0  0
  -17.7533   13.9765   25.5059 H   0  0  0  0  0  0  0  0  0  0  0  0
  -20.5900   12.9411   26.8061 C   0  0  0  0  0  0  0  0  0  0  0  0
  -21.3850   13.1842   26.1500 H   0  0  0  0  0  0  0  0  0  0  0  0
  1  2  2  0
  2  3  1  0
  2 16  1  0
  3  4  1  0
  3  5  1  0
  5  6  2  0
  5 14  1  0
  6  7  1  0
  6  8  1  0
  8  9  1  0
  8 13  1  0
  9 10  1  0
  9 11  1  0
  9 12  1  0
 13 14  2  0
 14 15  1  0
 16 17  2  0
 16 24  1  0
 17 18  1  0
 18 19  1  0
 19 20  1  0
 19 24  2  0
 20 21  1  0
 20 22  1  0
 20 23  1  0
 24 25  1  0
M  END
$$$$
