F421_48
     RDKit          3D

 19 19  0  0  0  0  0  0  0  0999 V2000
  -25.0067   13.1343   30.0002 O   0  0  0  0  0  0  0  0  0  0  0  0
  -24.0962   12.3687   29.6922 C   0  0  0  0  0  0  0  0  0  0  0  0
  -23.8044   12.2589   28.3339 N   0  0  0  0  0  0  0  0  0  0  0  0
  -24.7453   12.7689   27.3460 C   0  0  0  0  0  0  0  0  0  0  0  0
  -24.9135   11.9976   26.5874 H   0  0  0  0  0  0  0  0  0  0  0  0
  -24.3103   13.6552   26.8751 H   0  0  0  0  0  0  0  0  0  0  0  0
  -25.7086   13.0362   27.7871 H   0  0  0  0  0  0  0  0  0  0  0  0
  -22.5793   11.6823   27.7960 C   0  0  0  0  0  0  0  0  0  0  0  0
  -22.2290   12.2990   26.9617 H   0  0  0  0  0  0  0  0  0  0  0  0
  -22.7977   10.6742   27.4324 H   0  0  0  0  0  0  0  0  0  0  0  0
  -21.7843   11.6481   28.5436 H   0  0  0  0  0  0  0  0  0  0  0  0
  -23.3492   11.6151   30.6828 C   0  0  0  0  0  0  0  0  0  0  0  0
  -23.0273   12.0844   31.9213 C   0  0  0  0  0  0  0  0  0  0  0  0
  -23.2100   13.0196   32.3833 H   0  0  0  0  0  0  0  0  0  0  0  0
  -22.3815   11.0829   32.5421 N   0  0  0  0  0  0  0  0  0  0  0  0
  -22.0036   11.1275   33.5075 H   0  0  0  0  0  0  0  0  0  0  0  0
  -22.2777    9.9763   31.7567 N   0  0  0  0  0  0  0  0  0  0  0  0
  -22.8709   10.3035   30.6439 C   0  0  0  0  0  0  0  0  0  0  0  0
  -22.9717    9.6343   29.8260 H   0  0  0  0  0  0  0  0  0  0  0  0
  1  2  2  0
  2  3  1  0
  2 12  1  0
  3  4  1  0
  3  8  1  0
  4  5  1  0
  4  6  1  0
  4  7  1  0
  8  9  1  0
  8 10  1  0
  8 11  1  0
 12 13  2  0
 12 18  1  0
 13 14  1  0
 13 15  1  0
 15 16  1  0
 15 17  1  0
 17 18  2  0
 18 19  1  0
M  END
$$$$
