F274_85
     RDKit          3D

 26 27  0  0  0  0  0  0  0  0999 V2000
  -25.2767   14.1392   26.7811 O   0  0  0  0  0  0  0  0  0  0  0  0
  -24.9553   14.6432   27.8648 C   0  0  0  0  0  0  0  0  0  0  0  0
  -24.0656   13.9635   28.7077 N   0  0  0  0  0  0  0  0  0  0  0  0
  -23.4900   12.6812   28.3107 C   0  0  0  0  0  0  0  0  0  0  0  0
  -24.1004   12.2603   27.5028 H   0  0  0  0  0  0  0  0  0  0  0  0
  -22.4810   12.8353   27.9131 H   0  0  0  0  0  0  0  0  0  0  0  0
  -23.4635   11.7600   29.4684 C   0  0  0  0  0  0  0  0  0  0  0  0
  -22.6618   10.6956   29.3888 O   0  0  0  0  0  0  0  0  0  0  0  0
  -22.7606    9.9592   30.5032 N   0  0  0  0  0  0  0  0  0  0  0  0
  -23.6092   10.5471   31.2737 C   0  0  0  0  0  0  0  0  0  0  0  0
  -23.9503    9.9943   32.6007 C   0  0  0  0  0  0  0  0  0  0  0  0
  -24.8221   10.5020   33.0266 H   0  0  0  0  0  0  0  0  0  0  0  0
  -23.1129   10.1218   33.2950 H   0  0  0  0  0  0  0  0  0  0  0  0
  -24.1840    8.9269   32.5323 H   0  0  0  0  0  0  0  0  0  0  0  0
  -24.0854   11.6942   30.6555 C   0  0  0  0  0  0  0  0  0  0  0  0
  -24.7965   12.3811   31.0355 H   0  0  0  0  0  0  0  0  0  0  0  0
  -23.6753   14.4507   29.9386 N   0  0  0  0  0  0  0  0  0  0  0  0
  -24.1322   15.5875   30.3627 C   0  0  0  0  0  0  0  0  0  0  0  0
  -23.6956   16.0971   31.7070 C   0  0  0  0  0  0  0  0  0  0  0  0
  -22.6026   16.1510   31.7360 H   0  0  0  0  0  0  0  0  0  0  0  0
  -24.0382   15.4050   32.4825 H   0  0  0  0  0  0  0  0  0  0  0  0
  -24.1036   17.0898   31.9127 H   0  0  0  0  0  0  0  0  0  0  0  0
  -25.0377   16.3532   29.5720 C   0  0  0  0  0  0  0  0  0  0  0  0
  -25.3907   17.2801   29.9446 H   0  0  0  0  0  0  0  0  0  0  0  0
  -25.4393   15.8949   28.3515 C   0  0  0  0  0  0  0  0  0  0  0  0
  -26.1101   16.4392   27.7407 H   0  0  0  0  0  0  0  0  0  0  0  0
  1  2  2  0
  2  3  1  0
  2 25  1  0
  3  4  1  0
  3 17  1  0
  4  5  1  0
  4  6  1  0
  4  7  1  0
  7  8  1  0
  7 15  2  0
  8  9  1  0
  9 10  2  0
 10 11  1  0
 10 15  1  0
 11 12  1  0
 11 13  1  0
 11 14  1  0
 15 16  1  0
 17 18  2  0
 18 19  1  0
 18 23  1  0
 19 20  1  0
 19 21  1  0
 19 22  1  0
 23 24  1  0
 23 25  2  0
 25 26  1  0
M  END
$$$$
