F600_93
     RDKit          3D

 16 16  0  0  0  0  0  0  0  0999 V2000
  -24.2779   13.2792   31.0887 O   0  0  0  0  0  0  0  0  0  0  0  0
  -24.3128   12.3011   30.0495 C   0  0  0  0  0  0  0  0  0  0  0  0
  -24.1175   11.3079   30.4724 H   0  0  0  0  0  0  0  0  0  0  0  0
  -25.2993   12.2940   29.5721 H   0  0  0  0  0  0  0  0  0  0  0  0
  -23.2501   12.6502   29.0640 C   0  0  0  0  0  0  0  0  0  0  0  0
  -22.9357   11.6452   27.7129 S   0  0  0  0  0  0  0  0  0  0  0  0
  -21.7157   12.7565   27.3010 C   0  0  0  0  0  0  0  0  0  0  0  0
  -20.9680   12.5655   26.2009 N   0  0  0  0  0  0  0  0  0  0  0  0
  -21.1016   11.7714   25.5875 H   0  0  0  0  0  0  0  0  0  0  0  0
  -20.2412   13.2273   25.9563 H   0  0  0  0  0  0  0  0  0  0  0  0
  -21.5701   13.7613   28.1069 N   0  0  0  0  0  0  0  0  0  0  0  0
  -22.4778   13.6917   29.1432 N   0  0  0  0  0  0  0  0  0  0  0  0
  -25.2742   13.0342   32.0713 C   0  0  0  0  0  0  0  0  0  0  0  0
  -25.2004   13.8109   32.8377 H   0  0  0  0  0  0  0  0  0  0  0  0
  -25.1149   12.0607   32.5445 H   0  0  0  0  0  0  0  0  0  0  0  0
  -26.2721   13.0785   31.6246 H   0  0  0  0  0  0  0  0  0  0  0  0
  1  2  1  0
  1 13  1  0
  2  3  1  0
  2  4  1  0
  2  5  1  0
  5  6  1  0
  5 12  2  0
  6  7  1  0
  7  8  1  0
  7 11  2  0
  8  9  1  0
  8 10  1  0
 11 12  1  0
 13 14  1  0
 13 15  1  0
 13 16  1  0
M  END
$$$$
