F275_59
     RDKit          3D

 20 20  0  0  0  0  0  0  0  0999 V2000
  -14.5991   17.4918   26.4589 S   0  0  0  0  0  0  0  0  0  0  0  0
  -13.8225   17.5204   27.6769 O   0  0  0  0  0  0  0  0  0  0  0  0
  -14.4900   16.4112   25.5029 O   0  0  0  0  0  0  0  0  0  0  0  0
  -14.2718   18.9227   25.6289 N   0  0  0  0  0  0  0  0  0  0  0  0
  -14.2362   19.7324   26.2523 H   0  0  0  0  0  0  0  0  0  0  0  0
  -13.4591   18.8374   25.0131 H   0  0  0  0  0  0  0  0  0  0  0  0
  -16.2977   17.7041   26.8702 C   0  0  0  0  0  0  0  0  0  0  0  0
  -17.1935   16.6378   26.7475 C   0  0  0  0  0  0  0  0  0  0  0  0
  -16.8679   15.6973   26.3847 H   0  0  0  0  0  0  0  0  0  0  0  0
  -18.5176   16.8265   27.1132 C   0  0  0  0  0  0  0  0  0  0  0  0
  -19.3731   15.8011   26.9899 F   0  0  0  0  0  0  0  0  0  0  0  0
  -18.9891   18.0335   27.6071 C   0  0  0  0  0  0  0  0  0  0  0  0
  -20.0086   18.1339   27.8780 H   0  0  0  0  0  0  0  0  0  0  0  0
  -18.1010   19.0980   27.7432 C   0  0  0  0  0  0  0  0  0  0  0  0
  -18.5659   20.4035   28.3192 C   0  0  0  0  0  0  0  0  0  0  0  0
  -19.6225   20.5786   28.0910 H   0  0  0  0  0  0  0  0  0  0  0  0
  -17.9999   21.2400   27.8965 H   0  0  0  0  0  0  0  0  0  0  0  0
  -18.4343   20.4011   29.4052 H   0  0  0  0  0  0  0  0  0  0  0  0
  -16.7621   18.9243   27.3806 C   0  0  0  0  0  0  0  0  0  0  0  0
  -16.0767   19.7272   27.4963 H   0  0  0  0  0  0  0  0  0  0  0  0
  1  2  2  0
  1  3  2  0
  1  4  1  0
  1  7  1  0
  4  5  1  0
  4  6  1  0
  7  8  1  0
  7 19  2  0
  8  9  1  0
  8 10  2  0
 10 11  1  0
 10 12  1  0
 12 13  1  0
 12 14  2  0
 14 15  1  0
 14 19  1  0
 15 16  1  0
 15 17  1  0
 15 18  1  0
 19 20  1  0
M  END
$$$$
