F275_39
     RDKit          3D

 20 20  0  0  0  0  0  0  0  0999 V2000
  -25.6965   13.7238   28.0733 S   0  0  0  0  0  0  0  0  0  0  0  0
  -26.2871   14.5486   27.0445 O   0  0  0  0  0  0  0  0  0  0  0  0
  -24.8250   12.6119   27.7610 O   0  0  0  0  0  0  0  0  0  0  0  0
  -26.9617   13.1149   29.0071 N   0  0  0  0  0  0  0  0  0  0  0  0
  -26.6283   12.5288   29.7757 H   0  0  0  0  0  0  0  0  0  0  0  0
  -27.6173   13.8452   29.2966 H   0  0  0  0  0  0  0  0  0  0  0  0
  -24.8768   14.7683   29.2294 C   0  0  0  0  0  0  0  0  0  0  0  0
  -24.3383   14.2364   30.4048 C   0  0  0  0  0  0  0  0  0  0  0  0
  -24.4362   13.2050   30.6258 H   0  0  0  0  0  0  0  0  0  0  0  0
  -23.6675   15.0786   31.2785 C   0  0  0  0  0  0  0  0  0  0  0  0
  -23.1563   14.5633   32.4061 F   0  0  0  0  0  0  0  0  0  0  0  0
  -23.5002   16.4321   31.0271 C   0  0  0  0  0  0  0  0  0  0  0  0
  -22.9776   17.0397   31.7203 H   0  0  0  0  0  0  0  0  0  0  0  0
  -24.0238   16.9684   29.8530 C   0  0  0  0  0  0  0  0  0  0  0  0
  -23.8199   18.4188   29.5258 C   0  0  0  0  0  0  0  0  0  0  0  0
  -23.7534   19.0209   30.4381 H   0  0  0  0  0  0  0  0  0  0  0  0
  -24.6591   18.8084   28.9405 H   0  0  0  0  0  0  0  0  0  0  0  0
  -22.8985   18.5463   28.9499 H   0  0  0  0  0  0  0  0  0  0  0  0
  -24.7016   16.1329   28.9605 C   0  0  0  0  0  0  0  0  0  0  0  0
  -25.0898   16.5324   28.0563 H   0  0  0  0  0  0  0  0  0  0  0  0
  1  2  2  0
  1  3  2  0
  1  4  1  0
  1  7  1  0
  4  5  1  0
  4  6  1  0
  7  8  1  0
  7 19  2  0
  8  9  1  0
  8 10  2  0
 10 11  1  0
 10 12  1  0
 12 13  1  0
 12 14  2  0
 14 15  1  0
 14 19  1  0
 15 16  1  0
 15 17  1  0
 15 18  1  0
 19 20  1  0
M  END
$$$$
