F366_45
     RDKit          3D

 22 22  0  0  0  0  0  0  0  0999 V2000
  -24.2379   11.3599   30.2068 O   0  0  0  0  0  0  0  0  0  0  0  0
  -24.6600   12.2345   30.1472 H   0  0  0  0  0  0  0  0  0  0  0  0
  -22.9647   11.4685   29.5764 C   0  0  0  0  0  0  0  0  0  0  0  0
  -22.3766   12.2324   30.0964 H   0  0  0  0  0  0  0  0  0  0  0  0
  -22.4609   10.5023   29.6812 H   0  0  0  0  0  0  0  0  0  0  0  0
  -23.1391   11.8027   28.0962 C   0  0  0  0  0  0  0  0  0  0  0  0
  -22.1523   12.0013   27.6602 H   0  0  0  0  0  0  0  0  0  0  0  0
  -23.5639   10.9412   27.5648 H   0  0  0  0  0  0  0  0  0  0  0  0
  -24.0191   12.9912   27.8679 C   0  0  0  0  0  0  0  0  0  0  0  0
  -24.0691   14.1246   28.6033 C   0  0  0  0  0  0  0  0  0  0  0  0
  -23.5370   14.4262   29.4670 H   0  0  0  0  0  0  0  0  0  0  0  0
  -25.0017   14.9072   28.0174 N   0  0  0  0  0  0  0  0  0  0  0  0
  -25.4308   16.2303   28.4153 C   0  0  0  0  0  0  0  0  0  0  0  0
  -24.5629   16.8955   28.3541 H   0  0  0  0  0  0  0  0  0  0  0  0
  -26.1706   16.5740   27.6843 H   0  0  0  0  0  0  0  0  0  0  0  0
  -26.0108   16.2463   29.8184 C   0  0  0  0  0  0  0  0  0  0  0  0
  -25.2731   15.9053   30.5540 H   0  0  0  0  0  0  0  0  0  0  0  0
  -26.8840   15.5896   29.8938 H   0  0  0  0  0  0  0  0  0  0  0  0
  -26.3206   17.2600   30.0901 H   0  0  0  0  0  0  0  0  0  0  0  0
  -25.5531   14.3084   26.9325 N   0  0  0  0  0  0  0  0  0  0  0  0
  -24.9524   13.1524   26.8475 C   0  0  0  0  0  0  0  0  0  0  0  0
  -25.1643   12.4361   26.0919 H   0  0  0  0  0  0  0  0  0  0  0  0
  1  2  1  0
  1  3  1  0
  3  4  1  0
  3  5  1  0
  3  6  1  0
  6  7  1  0
  6  8  1  0
  6  9  1  0
  9 10  2  0
  9 21  1  0
 10 11  1  0
 10 12  1  0
 12 13  1  0
 12 20  1  0
 13 14  1  0
 13 15  1  0
 13 16  1  0
 16 17  1  0
 16 18  1  0
 16 19  1  0
 20 21  2  0
 21 22  1  0
M  END
$$$$
