F11_71
     RDKit          3D

 16 17  0  0  0  0  0  0  0  0999 V2000
  -23.0491    9.5803   30.7531 Br  0  0  0  0  0  0  0  0  0  0  0  0
  -23.0397   11.2585   29.8723 C   0  0  0  0  0  0  0  0  0  0  0  0
  -23.2318   12.4938   30.5493 C   0  0  0  0  0  0  0  0  0  0  0  0
  -23.2017   13.6774   29.7729 C   0  0  0  0  0  0  0  0  0  0  0  0
  -22.9957   13.6451   28.4247 N   0  0  0  0  0  0  0  0  0  0  0  0
  -22.8213   12.5055   27.8198 C   0  0  0  0  0  0  0  0  0  0  0  0
  -22.6623   12.5115   26.7691 H   0  0  0  0  0  0  0  0  0  0  0  0
  -22.8373   11.2813   28.5152 C   0  0  0  0  0  0  0  0  0  0  0  0
  -22.6903   10.3802   27.9769 H   0  0  0  0  0  0  0  0  0  0  0  0
  -23.3767   14.9071   30.3375 N   0  0  0  0  0  0  0  0  0  0  0  0
  -23.5775   15.0111   31.6217 C   0  0  0  0  0  0  0  0  0  0  0  0
  -23.7107   15.9815   32.0332 H   0  0  0  0  0  0  0  0  0  0  0  0
  -23.6217   13.8818   32.4667 C   0  0  0  0  0  0  0  0  0  0  0  0
  -23.7872   14.0198   33.5043 H   0  0  0  0  0  0  0  0  0  0  0  0
  -23.4511   12.6248   31.9451 C   0  0  0  0  0  0  0  0  0  0  0  0
  -23.4842   11.7755   32.5775 H   0  0  0  0  0  0  0  0  0  0  0  0
  1  2  1  0
  2  3  1  0
  2  8  2  0
  3  4  1  0
  3 15  2  0
  4  5  1  0
  4 10  2  0
  5  6  2  0
  6  7  1  0
  6  8  1  0
  8  9  1  0
 10 11  1  0
 11 12  1  0
 11 13  2  0
 13 14  1  0
 13 15  1  0
 15 16  1  0
M  END
$$$$
