F584_44
     RDKit          3D

 27 28  0  0  0  0  0  0  0  0999 V2000
  -26.4683   14.0808   30.4521 O   0  0  0  0  0  0  0  0  0  0  0  0
  -26.4305   13.6240   29.1068 C   0  0  0  0  0  0  0  0  0  0  0  0
  -27.3914   13.8695   28.6435 H   0  0  0  0  0  0  0  0  0  0  0  0
  -26.3092   12.5362   29.0620 H   0  0  0  0  0  0  0  0  0  0  0  0
  -25.6477   14.1355   28.5370 H   0  0  0  0  0  0  0  0  0  0  0  0
  -25.3653   13.8640   31.2510 C   0  0  0  0  0  0  0  0  0  0  0  0
  -24.5553   14.9827   31.4931 C   0  0  0  0  0  0  0  0  0  0  0  0
  -23.4074   14.7995   32.2786 C   0  0  0  0  0  0  0  0  0  0  0  0
  -22.4359   15.7754   32.6059 N   0  0  0  0  0  0  0  0  0  0  0  0
  -21.7209   15.4745   33.2791 H   0  0  0  0  0  0  0  0  0  0  0  0
  -22.2162   17.0574   32.2116 C   0  0  0  0  0  0  0  0  0  0  0  0
  -21.2315   17.5445   32.7165 O   0  0  0  0  0  0  0  0  0  0  0  0
  -23.0499   17.7556   31.1945 C   0  0  0  0  0  0  0  0  0  0  0  0
  -22.7986   18.8220   31.2460 H   0  0  0  0  0  0  0  0  0  0  0  0
  -22.7746   17.4007   30.1952 H   0  0  0  0  0  0  0  0  0  0  0  0
  -24.5172   17.5847   31.4920 C   0  0  0  0  0  0  0  0  0  0  0  0
  -24.7216   17.6276   32.5693 H   0  0  0  0  0  0  0  0  0  0  0  0
  -25.0654   18.4137   31.0292 H   0  0  0  0  0  0  0  0  0  0  0  0
  -25.0335   16.2891   30.8960 C   0  0  0  0  0  0  0  0  0  0  0  0
  -24.8245   16.2684   29.8184 H   0  0  0  0  0  0  0  0  0  0  0  0
  -26.1243   16.3460   31.0068 H   0  0  0  0  0  0  0  0  0  0  0  0
  -23.0851   13.5448   32.8011 C   0  0  0  0  0  0  0  0  0  0  0  0
  -22.2143   13.4241   33.3925 H   0  0  0  0  0  0  0  0  0  0  0  0
  -23.9052   12.4526   32.5513 C   0  0  0  0  0  0  0  0  0  0  0  0
  -23.6602   11.5023   32.9511 H   0  0  0  0  0  0  0  0  0  0  0  0
  -25.0492   12.6075   31.7767 C   0  0  0  0  0  0  0  0  0  0  0  0
  -25.6690   11.7709   31.5912 H   0  0  0  0  0  0  0  0  0  0  0  0
  1  2  1  0
  1  6  1  0
  2  3  1  0
  2  4  1  0
  2  5  1  0
  6  7  1  0
  6 26  2  0
  7  8  2  0
  7 19  1  0
  8  9  1  0
  8 22  1  0
  9 10  1  0
  9 11  1  0
 11 12  2  0
 11 13  1  0
 13 14  1  0
 13 15  1  0
 13 16  1  0
 16 17  1  0
 16 18  1  0
 16 19  1  0
 19 20  1  0
 19 21  1  0
 22 23  1  0
 22 24  2  0
 24 25  1  0
 24 26  1  0
 26 27  1  0
M  END
$$$$
