F389_80
     RDKit          3D

 18 18  0  0  0  0  0  0  0  0999 V2000
  -24.9080   13.9535   26.6757 O   0  0  0  0  0  0  0  0  0  0  0  0
  -24.5582   13.8010   27.8372 C   0  0  0  0  0  0  0  0  0  0  0  0
  -25.2620   14.2346   28.9252 O   0  0  0  0  0  0  0  0  0  0  0  0
  -26.4687   14.9641   28.6533 C   0  0  0  0  0  0  0  0  0  0  0  0
  -27.1495   14.2768   28.1400 H   0  0  0  0  0  0  0  0  0  0  0  0
  -26.2817   15.8018   27.9723 H   0  0  0  0  0  0  0  0  0  0  0  0
  -27.0981   15.4324   29.9510 C   0  0  0  0  0  0  0  0  0  0  0  0
  -26.4348   16.1219   30.4828 H   0  0  0  0  0  0  0  0  0  0  0  0
  -27.2770   14.5845   30.6202 H   0  0  0  0  0  0  0  0  0  0  0  0
  -28.0489   15.9383   29.7607 H   0  0  0  0  0  0  0  0  0  0  0  0
  -23.3245   13.1293   28.2030 C   0  0  0  0  0  0  0  0  0  0  0  0
  -22.2781   12.8151   27.3866 C   0  0  0  0  0  0  0  0  0  0  0  0
  -22.1205   12.9754   26.3511 H   0  0  0  0  0  0  0  0  0  0  0  0
  -21.3720   12.2049   28.1682 N   0  0  0  0  0  0  0  0  0  0  0  0
  -20.4542   11.8393   27.8464 H   0  0  0  0  0  0  0  0  0  0  0  0
  -21.7909   12.1115   29.4597 N   0  0  0  0  0  0  0  0  0  0  0  0
  -22.9683   12.6703   29.4721 C   0  0  0  0  0  0  0  0  0  0  0  0
  -23.5652   12.7570   30.3451 H   0  0  0  0  0  0  0  0  0  0  0  0
  1  2  2  0
  2  3  1  0
  2 11  1  0
  3  4  1  0
  4  5  1  0
  4  6  1  0
  4  7  1  0
  7  8  1  0
  7  9  1  0
  7 10  1  0
 11 12  2  0
 11 17  1  0
 12 13  1  0
 12 14  1  0
 14 15  1  0
 14 16  1  0
 16 17  2  0
 17 18  1  0
M  END
$$$$
