F603_19
     RDKit          3D

 24 25  0  0  0  0  0  0  0  0999 V2000
  -23.7033   11.9532   28.2107 S   0  0  0  0  0  0  0  0  0  0  0  0
  -24.7969   11.9292   29.1618 O   0  0  0  0  0  0  0  0  0  0  0  0
  -23.2099   10.7231   27.6134 O   0  0  0  0  0  0  0  0  0  0  0  0
  -22.3113   12.7931   28.9490 C   0  0  0  0  0  0  0  0  0  0  0  0
  -22.6717   13.7382   29.3644 H   0  0  0  0  0  0  0  0  0  0  0  0
  -21.9263   12.1586   29.7520 H   0  0  0  0  0  0  0  0  0  0  0  0
  -21.2703   13.0458   27.9156 C   0  0  0  0  0  0  0  0  0  0  0  0
  -21.0886   12.2348   26.8283 N   0  0  0  0  0  0  0  0  0  0  0  0
  -21.6025   11.3671   26.6191 H   0  0  0  0  0  0  0  0  0  0  0  0
  -20.1040   12.7687   26.0645 C   0  0  0  0  0  0  0  0  0  0  0  0
  -19.7201   13.9118   26.7344 C   0  0  0  0  0  0  0  0  0  0  0  0
  -20.4668   14.0567   27.8846 N   0  0  0  0  0  0  0  0  0  0  0  0
  -18.7016   14.7078   26.1939 C   0  0  0  0  0  0  0  0  0  0  0  0
  -18.4008   15.5854   26.7034 H   0  0  0  0  0  0  0  0  0  0  0  0
  -18.1045   14.3258   24.9992 C   0  0  0  0  0  0  0  0  0  0  0  0
  -17.3327   14.9196   24.5818 H   0  0  0  0  0  0  0  0  0  0  0  0
  -18.5167   13.1493   24.3310 C   0  0  0  0  0  0  0  0  0  0  0  0
  -18.0477   12.8763   23.4192 H   0  0  0  0  0  0  0  0  0  0  0  0
  -19.5231   12.3558   24.8577 C   0  0  0  0  0  0  0  0  0  0  0  0
  -19.8409   11.4715   24.3683 H   0  0  0  0  0  0  0  0  0  0  0  0
  -24.1653   13.0446   26.8896 C   0  0  0  0  0  0  0  0  0  0  0  0
  -24.4426   14.0117   27.3127 H   0  0  0  0  0  0  0  0  0  0  0  0
  -25.0178   12.6059   26.3672 H   0  0  0  0  0  0  0  0  0  0  0  0
  -23.3209   13.1487   26.2049 H   0  0  0  0  0  0  0  0  0  0  0  0
  1  2  2  0
  1  3  2  0
  1  4  1  0
  1 21  1  0
  4  5  1  0
  4  6  1  0
  4  7  1  0
  7  8  1  0
  7 12  2  0
  8  9  1  0
  8 10  1  0
 10 11  1  0
 10 19  2  0
 11 12  1  0
 11 13  2  0
 13 14  1  0
 13 15  1  0
 15 16  1  0
 15 17  2  0
 17 18  1  0
 17 19  1  0
 19 20  1  0
 21 22  1  0
 21 23  1  0
 21 24  1  0
M  END
$$$$
