F374_16
     RDKit          3D

 18 18  0  0  0  0  0  0  0  0999 V2000
  -24.3340   12.7327   25.8379 O   0  0  0  0  0  0  0  0  0  0  0  0
  -24.2701   13.2681   26.9432 C   0  0  0  0  0  0  0  0  0  0  0  0
  -23.0916   13.1537   27.6286 N   0  0  0  0  0  0  0  0  0  0  0  0
  -23.0300   13.6578   28.5245 H   0  0  0  0  0  0  0  0  0  0  0  0
  -21.9575   12.3941   27.1463 C   0  0  0  0  0  0  0  0  0  0  0  0
  -22.2322   11.3335   27.1375 H   0  0  0  0  0  0  0  0  0  0  0  0
  -21.7606   12.7006   26.1141 H   0  0  0  0  0  0  0  0  0  0  0  0
  -20.7295   12.6145   28.0078 C   0  0  0  0  0  0  0  0  0  0  0  0
  -19.8852   12.0330   27.6256 H   0  0  0  0  0  0  0  0  0  0  0  0
  -20.4430   13.6714   28.0173 H   0  0  0  0  0  0  0  0  0  0  0  0
  -20.9184   12.3099   29.0424 H   0  0  0  0  0  0  0  0  0  0  0  0
  -25.3165   14.0310   27.5778 C   0  0  0  0  0  0  0  0  0  0  0  0
  -26.3378   14.6206   26.8908 N   0  0  0  0  0  0  0  0  0  0  0  0
  -27.1027   15.2278   27.7629 N   0  0  0  0  0  0  0  0  0  0  0  0
  -26.5769   15.0260   28.9805 N   0  0  0  0  0  0  0  0  0  0  0  0
  -26.9985   15.4052   29.8488 H   0  0  0  0  0  0  0  0  0  0  0  0
  -25.4758   14.2923   28.8987 C   0  0  0  0  0  0  0  0  0  0  0  0
  -24.8995   14.0113   29.7422 H   0  0  0  0  0  0  0  0  0  0  0  0
  1  2  2  0
  2  3  1  0
  2 12  1  0
  3  4  1  0
  3  5  1  0
  5  6  1  0
  5  7  1  0
  5  8  1  0
  8  9  1  0
  8 10  1  0
  8 11  1  0
 12 13  1  0
 12 17  2  0
 13 14  2  0
 14 15  1  0
 15 16  1  0
 15 17  1  0
 17 18  1  0
M  END
$$$$
