F760_25
     RDKit          3D

 17 18  0  0  0  0  0  0  0  0999 V2000
  -22.1568   10.5153   32.2698 Br  0  0  0  0  0  0  0  0  0  0  0  0
  -23.0365   11.9085   31.3420 C   0  0  0  0  0  0  0  0  0  0  0  0
  -23.4448   11.7160   30.0242 C   0  0  0  0  0  0  0  0  0  0  0  0
  -23.2715   10.7997   29.5238 H   0  0  0  0  0  0  0  0  0  0  0  0
  -24.0853   12.7692   29.3853 C   0  0  0  0  0  0  0  0  0  0  0  0
  -24.5732   12.8041   28.0874 N   0  0  0  0  0  0  0  0  0  0  0  0
  -24.5379   12.0533   27.3873 H   0  0  0  0  0  0  0  0  0  0  0  0
  -25.1380   14.0033   27.8112 C   0  0  0  0  0  0  0  0  0  0  0  0
  -25.6200   14.2260   26.7254 O   0  0  0  0  0  0  0  0  0  0  0  0
  -25.0344   14.8977   29.0444 C   0  0  0  0  0  0  0  0  0  0  0  0
  -24.4341   15.7807   28.8139 H   0  0  0  0  0  0  0  0  0  0  0  0
  -26.0346   15.1583   29.3984 H   0  0  0  0  0  0  0  0  0  0  0  0
  -24.3313   13.9816   29.9974 C   0  0  0  0  0  0  0  0  0  0  0  0
  -23.9256   14.1735   31.3137 C   0  0  0  0  0  0  0  0  0  0  0  0
  -24.1053   15.0969   31.8040 H   0  0  0  0  0  0  0  0  0  0  0  0
  -23.2772   13.1328   31.9842 C   0  0  0  0  0  0  0  0  0  0  0  0
  -22.9635   13.2670   32.9872 H   0  0  0  0  0  0  0  0  0  0  0  0
  1  2  1  0
  2  3  1  0
  2 16  2  0
  3  4  1  0
  3  5  2  0
  5  6  1  0
  5 13  1  0
  6  7  1  0
  6  8  1  0
  8  9  2  0
  8 10  1  0
 10 11  1  0
 10 12  1  0
 10 13  1  0
 13 14  2  0
 14 15  1  0
 14 16  1  0
 16 17  1  0
M  END
$$$$
