F740_24
     RDKit          3D

 26 28  0  0  0  0  0  0  0  0999 V2000
  -21.8151   11.1696   27.5863 O   0  0  0  0  0  0  0  0  0  0  0  0
  -21.8493   12.3017   28.0580 C   0  0  0  0  0  0  0  0  0  0  0  0
  -20.6879   13.0324   28.0541 N   0  0  0  0  0  0  0  0  0  0  0  0
  -20.7335   14.0148   28.3396 H   0  0  0  0  0  0  0  0  0  0  0  0
  -19.4246   12.5059   27.6438 C   0  0  0  0  0  0  0  0  0  0  0  0
  -18.8809   12.0299   28.4572 H   0  0  0  0  0  0  0  0  0  0  0  0
  -18.5939   13.2114   26.6065 C   0  0  0  0  0  0  0  0  0  0  0  0
  -18.9879   14.1069   26.1412 H   0  0  0  0  0  0  0  0  0  0  0  0
  -17.5186   13.2163   26.7401 H   0  0  0  0  0  0  0  0  0  0  0  0
  -19.2537   11.9056   26.2754 C   0  0  0  0  0  0  0  0  0  0  0  0
  -18.6315   11.0229   26.1917 H   0  0  0  0  0  0  0  0  0  0  0  0
  -20.1012   11.9174   25.6008 H   0  0  0  0  0  0  0  0  0  0  0  0
  -23.0909   12.9195   28.5729 C   0  0  0  0  0  0  0  0  0  0  0  0
  -24.0162   13.4271   27.6409 C   0  0  0  0  0  0  0  0  0  0  0  0
  -23.8242   13.3709   26.6009 H   0  0  0  0  0  0  0  0  0  0  0  0
  -25.1853   14.0044   28.1072 C   0  0  0  0  0  0  0  0  0  0  0  0
  -26.1716   14.5415   27.3430 O   0  0  0  0  0  0  0  0  0  0  0  0
  -27.0999   14.9732   28.3596 C   0  0  0  0  0  0  0  0  0  0  0  0
  -27.2453   16.0547   28.2653 H   0  0  0  0  0  0  0  0  0  0  0  0
  -28.0608   14.4730   28.1926 H   0  0  0  0  0  0  0  0  0  0  0  0
  -26.6554   14.6825   29.7015 O   0  0  0  0  0  0  0  0  0  0  0  0
  -25.4610   14.0841   29.4499 C   0  0  0  0  0  0  0  0  0  0  0  0
  -24.5798   13.5857   30.3989 C   0  0  0  0  0  0  0  0  0  0  0  0
  -24.8134   13.6490   31.4311 H   0  0  0  0  0  0  0  0  0  0  0  0
  -23.3941   12.9988   29.9550 C   0  0  0  0  0  0  0  0  0  0  0  0
  -22.7211   12.5974   30.6689 H   0  0  0  0  0  0  0  0  0  0  0  0
  1  2  2  0
  2  3  1  0
  2 13  1  0
  3  4  1  0
  3  5  1  0
  5  6  1  0
  5  7  1  0
  5 10  1  0
  7  8  1  0
  7  9  1  0
  7 10  1  0
 10 11  1  0
 10 12  1  0
 13 14  1  0
 13 25  2  0
 14 15  1  0
 14 16  2  0
 16 17  1  0
 16 22  1  0
 17 18  1  0
 18 19  1  0
 18 20  1  0
 18 21  1  0
 21 22  1  0
 22 23  2  0
 23 24  1  0
 23 25  1  0
 25 26  1  0
M  END
$$$$
