F763_6
     RDKit          3D

 19 19  0  0  0  0  0  0  0  0999 V2000
  -23.3291   13.0945   33.7064 Br  0  0  0  0  0  0  0  0  0  0  0  0
  -23.3655   12.9183   31.8448 C   0  0  0  0  0  0  0  0  0  0  0  0
  -23.5576   14.0011   31.0422 C   0  0  0  0  0  0  0  0  0  0  0  0
  -23.6928   14.9693   31.4436 H   0  0  0  0  0  0  0  0  0  0  0  0
  -23.5870   13.8626   29.6215 C   0  0  0  0  0  0  0  0  0  0  0  0
  -23.7771   14.8017   28.8379 O   0  0  0  0  0  0  0  0  0  0  0  0
  -23.3983   12.5841   29.0872 N   0  0  0  0  0  0  0  0  0  0  0  0
  -23.4131   12.3947   27.6356 C   0  0  0  0  0  0  0  0  0  0  0  0
  -22.6416   13.0268   27.1791 H   0  0  0  0  0  0  0  0  0  0  0  0
  -23.1307   11.3628   27.3893 H   0  0  0  0  0  0  0  0  0  0  0  0
  -24.7707   12.7337   27.0227 C   0  0  0  0  0  0  0  0  0  0  0  0
  -24.9190   13.8153   26.9395 H   0  0  0  0  0  0  0  0  0  0  0  0
  -25.5807   12.3354   27.6429 H   0  0  0  0  0  0  0  0  0  0  0  0
  -24.8867   12.1581   25.7267 O   0  0  0  0  0  0  0  0  0  0  0  0
  -25.0615   11.2073   25.8459 H   0  0  0  0  0  0  0  0  0  0  0  0
  -23.2077   11.4781   29.9083 C   0  0  0  0  0  0  0  0  0  0  0  0
  -23.0823   10.5470   29.4118 H   0  0  0  0  0  0  0  0  0  0  0  0
  -23.1887   11.6314   31.2634 C   0  0  0  0  0  0  0  0  0  0  0  0
  -23.0432   10.7946   31.8975 H   0  0  0  0  0  0  0  0  0  0  0  0
  1  2  1  0
  2  3  2  0
  2 18  1  0
  3  4  1  0
  3  5  1  0
  5  6  2  0
  5  7  1  0
  7  8  1  0
  7 16  1  0
  8  9  1  0
  8 10  1  0
  8 11  1  0
 11 12  1  0
 11 13  1  0
 11 14  1  0
 14 15  1  0
 16 17  1  0
 16 18  2  0
 18 19  1  0
M  END
$$$$
