F217_92
     RDKit          3D

 28 29  0  0  0  0  0  0  0  0999 V2000
  -17.2296   14.7690   27.6501 O   0  0  0  0  0  0  0  0  0  0  0  0
  -17.8996   14.8859   26.6373 C   0  0  0  0  0  0  0  0  0  0  0  0
  -17.4769   15.6719   25.6673 N   0  0  0  0  0  0  0  0  0  0  0  0
  -16.6019   16.1452   25.8208 H   0  0  0  0  0  0  0  0  0  0  0  0
  -18.0085   15.7921   24.8230 H   0  0  0  0  0  0  0  0  0  0  0  0
  -19.2086   14.1819   26.3971 C   0  0  0  0  0  0  0  0  0  0  0  0
  -19.9881   14.9360   26.2419 H   0  0  0  0  0  0  0  0  0  0  0  0
  -19.1223   13.6021   25.4702 H   0  0  0  0  0  0  0  0  0  0  0  0
  -19.5646   13.2767   27.5688 C   0  0  0  0  0  0  0  0  0  0  0  0
  -19.7617   13.8606   28.4745 H   0  0  0  0  0  0  0  0  0  0  0  0
  -18.7392   12.5967   27.8131 H   0  0  0  0  0  0  0  0  0  0  0  0
  -20.7321   12.4644   27.2827 N   0  0  0  0  0  0  0  0  0  0  0  0
  -20.7728   11.3118   26.5326 C   0  0  0  0  0  0  0  0  0  0  0  0
  -19.5765   10.7205   25.8766 C   0  0  0  0  0  0  0  0  0  0  0  0
  -19.8282    9.7593   25.4187 H   0  0  0  0  0  0  0  0  0  0  0  0
  -18.7776   10.5471   26.6029 H   0  0  0  0  0  0  0  0  0  0  0  0
  -19.2040   11.3812   25.0880 H   0  0  0  0  0  0  0  0  0  0  0  0
  -21.9653   10.8192   26.4758 N   0  0  0  0  0  0  0  0  0  0  0  0
  -22.7573   11.6711   27.2133 C   0  0  0  0  0  0  0  0  0  0  0  0
  -21.9996   12.7061   27.7226 C   0  0  0  0  0  0  0  0  0  0  0  0
  -22.5423   13.7279   28.5154 C   0  0  0  0  0  0  0  0  0  0  0  0
  -21.9390   14.5139   28.8905 H   0  0  0  0  0  0  0  0  0  0  0  0
  -23.9002   13.6752   28.7903 C   0  0  0  0  0  0  0  0  0  0  0  0
  -24.3500   14.4268   29.3850 H   0  0  0  0  0  0  0  0  0  0  0  0
  -24.6930   12.6220   28.2803 C   0  0  0  0  0  0  0  0  0  0  0  0
  -25.7307   12.5969   28.4998 H   0  0  0  0  0  0  0  0  0  0  0  0
  -24.1291   11.6248   27.4960 C   0  0  0  0  0  0  0  0  0  0  0  0
  -24.7136   10.8338   27.1084 H   0  0  0  0  0  0  0  0  0  0  0  0
  1  2  2  0
  2  3  1  0
  2  6  1  0
  3  4  1  0
  3  5  1  0
  6  7  1  0
  6  8  1  0
  6  9  1  0
  9 10  1  0
  9 11  1  0
  9 12  1  0
 12 13  1  0
 12 20  1  0
 13 14  1  0
 13 18  2  0
 14 15  1  0
 14 16  1  0
 14 17  1  0
 18 19  1  0
 19 20  1  0
 19 27  2  0
 20 21  2  0
 21 22  1  0
 21 23  1  0
 23 24  1  0
 23 25  2  0
 25 26  1  0
 25 27  1  0
 27 28  1  0
M  END
$$$$
