F760_20
     RDKit          3D

 17 18  0  0  0  0  0  0  0  0999 V2000
  -25.0312   14.6136   32.9214 Br  0  0  0  0  0  0  0  0  0  0  0  0
  -24.5458   13.8060   31.2820 C   0  0  0  0  0  0  0  0  0  0  0  0
  -25.2475   14.1170   30.1197 C   0  0  0  0  0  0  0  0  0  0  0  0
  -26.0553   14.8006   30.1321 H   0  0  0  0  0  0  0  0  0  0  0  0
  -24.8541   13.4970   28.9413 C   0  0  0  0  0  0  0  0  0  0  0  0
  -25.4022   13.6520   27.6766 N   0  0  0  0  0  0  0  0  0  0  0  0
  -26.1912   14.2523   27.4080 H   0  0  0  0  0  0  0  0  0  0  0  0
  -24.7557   12.8842   26.7679 C   0  0  0  0  0  0  0  0  0  0  0  0
  -25.0909   12.8835   25.6066 O   0  0  0  0  0  0  0  0  0  0  0  0
  -23.6401   12.1144   27.4709 C   0  0  0  0  0  0  0  0  0  0  0  0
  -23.8203   11.0402   27.3881 H   0  0  0  0  0  0  0  0  0  0  0  0
  -22.6716   12.4045   27.0569 H   0  0  0  0  0  0  0  0  0  0  0  0
  -23.8082   12.5987   28.8778 C   0  0  0  0  0  0  0  0  0  0  0  0
  -23.1060   12.2893   30.0376 C   0  0  0  0  0  0  0  0  0  0  0  0
  -22.2981   11.6023   30.0116 H   0  0  0  0  0  0  0  0  0  0  0  0
  -23.4783   12.8960   31.2403 C   0  0  0  0  0  0  0  0  0  0  0  0
  -22.9509   12.6684   32.1305 H   0  0  0  0  0  0  0  0  0  0  0  0
  1  2  1  0
  2  3  1  0
  2 16  2  0
  3  4  1  0
  3  5  2  0
  5  6  1  0
  5 13  1  0
  6  7  1  0
  6  8  1  0
  8  9  2  0
  8 10  1  0
 10 11  1  0
 10 12  1  0
 10 13  1  0
 13 14  2  0
 14 15  1  0
 14 16  1  0
 16 17  1  0
M  END
$$$$
