F374_97
     RDKit          3D

 18 18  0  0  0  0  0  0  0  0999 V2000
  -23.7438   13.1259   31.5430 O   0  0  0  0  0  0  0  0  0  0  0  0
  -23.4042   13.3979   30.3927 C   0  0  0  0  0  0  0  0  0  0  0  0
  -23.3979   14.7186   30.0360 N   0  0  0  0  0  0  0  0  0  0  0  0
  -23.0530   14.9380   29.0907 H   0  0  0  0  0  0  0  0  0  0  0  0
  -23.8228   15.7860   30.9169 C   0  0  0  0  0  0  0  0  0  0  0  0
  -24.7680   15.4900   31.3854 H   0  0  0  0  0  0  0  0  0  0  0  0
  -23.0724   15.8901   31.7070 H   0  0  0  0  0  0  0  0  0  0  0  0
  -23.9906   17.0946   30.1698 C   0  0  0  0  0  0  0  0  0  0  0  0
  -24.3105   17.8866   30.8535 H   0  0  0  0  0  0  0  0  0  0  0  0
  -23.0488   17.4023   29.7036 H   0  0  0  0  0  0  0  0  0  0  0  0
  -24.7403   16.9987   29.3775 H   0  0  0  0  0  0  0  0  0  0  0  0
  -22.9848   12.4538   29.3865 C   0  0  0  0  0  0  0  0  0  0  0  0
  -23.1624   11.1054   29.5017 N   0  0  0  0  0  0  0  0  0  0  0  0
  -22.6715   10.5481   28.4233 N   0  0  0  0  0  0  0  0  0  0  0  0
  -22.1926   11.5249   27.6384 N   0  0  0  0  0  0  0  0  0  0  0  0
  -21.7491   11.3451   26.7183 H   0  0  0  0  0  0  0  0  0  0  0  0
  -22.3710   12.7101   28.2049 C   0  0  0  0  0  0  0  0  0  0  0  0
  -22.0680   13.6210   27.7569 H   0  0  0  0  0  0  0  0  0  0  0  0
  1  2  2  0
  2  3  1  0
  2 12  1  0
  3  4  1  0
  3  5  1  0
  5  6  1  0
  5  7  1  0
  5  8  1  0
  8  9  1  0
  8 10  1  0
  8 11  1  0
 12 13  1  0
 12 17  2  0
 13 14  2  0
 14 15  1  0
 15 16  1  0
 15 17  1  0
 17 18  1  0
M  END
$$$$
