F362_20
     RDKit          3D

 30 31  0  0  0  0  0  0  0  0999 V2000
  -18.4802   19.3167   28.3379 N   0  0  0  0  0  0  0  0  0  0  0  0
  -18.2943   20.7101   27.8892 C   0  0  0  0  0  0  0  0  0  0  0  0
  -18.6977   21.4246   28.6120 H   0  0  0  0  0  0  0  0  0  0  0  0
  -17.2235   20.9468   27.8485 H   0  0  0  0  0  0  0  0  0  0  0  0
  -18.8800   20.9170   26.5004 C   0  0  0  0  0  0  0  0  0  0  0  0
  -19.9417   20.6599   26.4574 H   0  0  0  0  0  0  0  0  0  0  0  0
  -18.3634   20.2945   25.7615 H   0  0  0  0  0  0  0  0  0  0  0  0
  -18.7693   21.9626   26.1946 H   0  0  0  0  0  0  0  0  0  0  0  0
  -19.4357   19.1896   29.4567 C   0  0  0  0  0  0  0  0  0  0  0  0
  -19.3759   18.1968   29.9155 H   0  0  0  0  0  0  0  0  0  0  0  0
  -19.1759   19.8909   30.2601 H   0  0  0  0  0  0  0  0  0  0  0  0
  -20.8560   19.4798   28.9920 C   0  0  0  0  0  0  0  0  0  0  0  0
  -21.1773   18.7782   28.2164 H   0  0  0  0  0  0  0  0  0  0  0  0
  -20.9366   20.4904   28.5796 H   0  0  0  0  0  0  0  0  0  0  0  0
  -21.5522   19.3988   29.8325 H   0  0  0  0  0  0  0  0  0  0  0  0
  -17.8068   18.1841   27.7567 C   0  0  0  0  0  0  0  0  0  0  0  0
  -16.3686   18.1050   27.6811 N   0  0  0  0  0  0  0  0  0  0  0  0
  -15.4272   18.9802   28.0978 N   0  0  0  0  0  0  0  0  0  0  0  0
  -14.3239   18.3809   27.7713 C   0  0  0  0  0  0  0  0  0  0  0  0
  -13.3713   18.8103   27.9637 H   0  0  0  0  0  0  0  0  0  0  0  0
  -14.4578   17.1902   27.1777 N   0  0  0  0  0  0  0  0  0  0  0  0
  -15.7466   17.0160   27.1223 C   0  0  0  0  0  0  0  0  0  0  0  0
  -16.4408   15.9384   26.5989 N   0  0  0  0  0  0  0  0  0  0  0  0
  -17.7328   15.9646   26.6446 C   0  0  0  0  0  0  0  0  0  0  0  0
  -18.5103   14.8058   26.0834 C   0  0  0  0  0  0  0  0  0  0  0  0
  -19.5874   14.9614   26.1791 H   0  0  0  0  0  0  0  0  0  0  0  0
  -18.2349   13.8932   26.6196 H   0  0  0  0  0  0  0  0  0  0  0  0
  -18.2628   14.6849   25.0245 H   0  0  0  0  0  0  0  0  0  0  0  0
  -18.4889   17.1008   27.2339 C   0  0  0  0  0  0  0  0  0  0  0  0
  -19.5425   17.0790   27.2384 H   0  0  0  0  0  0  0  0  0  0  0  0
  1  2  1  0
  1  9  1  0
  1 16  1  0
  2  3  1  0
  2  4  1  0
  2  5  1  0
  5  6  1  0
  5  7  1  0
  5  8  1  0
  9 10  1  0
  9 11  1  0
  9 12  1  0
 12 13  1  0
 12 14  1  0
 12 15  1  0
 16 17  1  0
 16 29  2  0
 17 18  1  0
 17 22  1  0
 18 19  2  0
 19 20  1  0
 19 21  1  0
 21 22  2  0
 22 23  1  0
 23 24  2  0
 24 25  1  0
 24 29  1  0
 25 26  1  0
 25 27  1  0
 25 28  1  0
 29 30  1  0
M  END
$$$$
