F309_76
     RDKit          3D

 14 14  0  0  0  0  0  0  0  0999 V2000
  -27.1028   15.1192   27.9090 O   0  0  0  0  0  0  0  0  0  0  0  0
  -26.1568   14.3082   27.7075 C   0  0  0  0  0  0  0  0  0  0  0  0
  -25.7138   14.1416   26.5326 O   0  0  0  0  0  0  0  0  0  0  0  0
  -25.5782   13.5705   28.8233 C   0  0  0  0  0  0  0  0  0  0  0  0
  -24.6138   12.5782   28.7651 C   0  0  0  0  0  0  0  0  0  0  0  0
  -23.9761   12.0747   27.5032 C   0  0  0  0  0  0  0  0  0  0  0  0
  -23.2465   11.2865   27.7155 H   0  0  0  0  0  0  0  0  0  0  0  0
  -23.4460   12.8826   26.9889 H   0  0  0  0  0  0  0  0  0  0  0  0
  -24.7304   11.6500   26.8323 H   0  0  0  0  0  0  0  0  0  0  0  0
  -24.2710   12.0682   30.0278 C   0  0  0  0  0  0  0  0  0  0  0  0
  -23.5508   11.3063   30.1770 H   0  0  0  0  0  0  0  0  0  0  0  0
  -24.9608   12.6555   31.0482 C   0  0  0  0  0  0  0  0  0  0  0  0
  -24.8827   12.4467   32.0836 H   0  0  0  0  0  0  0  0  0  0  0  0
  -26.0529   13.8555   30.4742 S   0  0  0  0  0  0  0  0  0  0  0  0
  1  2  1  0
  2  3  2  0
  2  4  1  0
  4  5  2  0
  4 14  1  0
  5  6  1  0
  5 10  1  0
  6  7  1  0
  6  8  1  0
  6  9  1  0
 10 11  1  0
 10 12  2  0
 12 13  1  0
 12 14  1  0
M  END
$$$$
