F709_0
     RDKit          3D

 29 30  0  0  0  0  0  0  0  0999 V2000
  -25.8270   15.5700   26.9967 O   0  0  0  0  0  0  0  0  0  0  0  0
  -25.9554   15.2156   28.1570 C   0  0  0  0  0  0  0  0  0  0  0  0
  -26.5736   16.0169   29.0272 N   0  0  0  0  0  0  0  0  0  0  0  0
  -27.4231   15.6186   29.4422 H   0  0  0  0  0  0  0  0  0  0  0  0
  -25.9713   16.6037   29.6098 H   0  0  0  0  0  0  0  0  0  0  0  0
  -25.5106   14.0141   28.6429 N   0  0  0  0  0  0  0  0  0  0  0  0
  -25.0378   12.9974   27.6990 C   0  0  0  0  0  0  0  0  0  0  0  0
  -25.0696   13.3622   26.6670 H   0  0  0  0  0  0  0  0  0  0  0  0
  -25.7307   12.1501   27.7690 H   0  0  0  0  0  0  0  0  0  0  0  0
  -23.6195   12.5453   28.0458 C   0  0  0  0  0  0  0  0  0  0  0  0
  -22.9218   13.3837   27.9322 H   0  0  0  0  0  0  0  0  0  0  0  0
  -23.2993   11.7621   27.3531 H   0  0  0  0  0  0  0  0  0  0  0  0
  -23.5218   12.1092   29.4471 N   0  0  0  0  0  0  0  0  0  0  0  0
  -22.9741   10.8686   29.7583 C   0  0  0  0  0  0  0  0  0  0  0  0
  -22.8674   10.0685   28.8283 O   0  0  0  0  0  0  0  0  0  0  0  0
  -22.5606   10.5417   31.1049 C   0  0  0  0  0  0  0  0  0  0  0  0
  -22.0532   11.5031   31.9339 O   0  0  0  0  0  0  0  0  0  0  0  0
  -21.7010   10.9108   33.0964 C   0  0  0  0  0  0  0  0  0  0  0  0
  -21.2929   11.4861   33.8877 H   0  0  0  0  0  0  0  0  0  0  0  0
  -21.9550    9.5838   33.0252 C   0  0  0  0  0  0  0  0  0  0  0  0
  -21.7761    8.8721   33.7886 H   0  0  0  0  0  0  0  0  0  0  0  0
  -22.4938    9.3366   31.7401 C   0  0  0  0  0  0  0  0  0  0  0  0
  -22.7945    8.4069   31.3284 H   0  0  0  0  0  0  0  0  0  0  0  0
  -24.0305   13.0827   30.4232 C   0  0  0  0  0  0  0  0  0  0  0  0
  -24.0975   12.6529   31.4242 H   0  0  0  0  0  0  0  0  0  0  0  0
  -23.3142   13.9119   30.4470 H   0  0  0  0  0  0  0  0  0  0  0  0
  -25.4312   13.6041   30.0520 C   0  0  0  0  0  0  0  0  0  0  0  0
  -25.6848   14.4213   30.7308 H   0  0  0  0  0  0  0  0  0  0  0  0
  -26.1737   12.8086   30.1889 H   0  0  0  0  0  0  0  0  0  0  0  0
  1  2  2  0
  2  3  1  0
  2  6  1  0
  3  4  1  0
  3  5  1  0
  6  7  1  0
  6 27  1  0
  7  8  1  0
  7  9  1  0
  7 10  1  0
 10 11  1  0
 10 12  1  0
 10 13  1  0
 13 14  1  0
 13 24  1  0
 14 15  2  0
 14 16  1  0
 16 17  1  0
 16 22  2  0
 17 18  1  0
 18 19  1  0
 18 20  2  0
 20 21  1  0
 20 22  1  0
 22 23  1  0
 24 25  1  0
 24 26  1  0
 24 27  1  0
 27 28  1  0
 27 29  1  0
M  END
$$$$
