F374_91
     RDKit          3D

 18 18  0  0  0  0  0  0  0  0999 V2000
  -22.8886   12.7275   31.4247 O   0  0  0  0  0  0  0  0  0  0  0  0
  -22.8794   11.6208   30.8883 C   0  0  0  0  0  0  0  0  0  0  0  0
  -23.1359   10.5366   31.6821 N   0  0  0  0  0  0  0  0  0  0  0  0
  -23.1863    9.6227   31.2101 H   0  0  0  0  0  0  0  0  0  0  0  0
  -23.3542   10.6262   33.1105 C   0  0  0  0  0  0  0  0  0  0  0  0
  -24.1025   11.4047   33.2962 H   0  0  0  0  0  0  0  0  0  0  0  0
  -23.7692    9.6714   33.4488 H   0  0  0  0  0  0  0  0  0  0  0  0
  -22.0706   10.9392   33.8541 C   0  0  0  0  0  0  0  0  0  0  0  0
  -22.2578   11.0012   34.9303 H   0  0  0  0  0  0  0  0  0  0  0  0
  -21.3184   10.1627   33.6800 H   0  0  0  0  0  0  0  0  0  0  0  0
  -21.6492   11.8935   33.5213 H   0  0  0  0  0  0  0  0  0  0  0  0
  -22.6483   11.3584   29.4892 C   0  0  0  0  0  0  0  0  0  0  0  0
  -22.9143   10.1580   28.8966 N   0  0  0  0  0  0  0  0  0  0  0  0
  -22.5909   10.2608   27.6320 N   0  0  0  0  0  0  0  0  0  0  0  0
  -22.1295   11.5035   27.4262 N   0  0  0  0  0  0  0  0  0  0  0  0
  -21.8065   11.8410   26.5002 H   0  0  0  0  0  0  0  0  0  0  0  0
  -22.1526   12.2034   28.5518 C   0  0  0  0  0  0  0  0  0  0  0  0
  -21.8328   13.2113   28.6172 H   0  0  0  0  0  0  0  0  0  0  0  0
  1  2  2  0
  2  3  1  0
  2 12  1  0
  3  4  1  0
  3  5  1  0
  5  6  1  0
  5  7  1  0
  5  8  1  0
  8  9  1  0
  8 10  1  0
  8 11  1  0
 12 13  1  0
 12 17  2  0
 13 14  2  0
 14 15  1  0
 15 16  1  0
 15 17  1  0
 17 18  1  0
M  END
$$$$
