F217_95
     RDKit          3D

 28 29  0  0  0  0  0  0  0  0999 V2000
  -17.1173   14.9470   26.4903 O   0  0  0  0  0  0  0  0  0  0  0  0
  -18.1545   14.4804   26.0490 C   0  0  0  0  0  0  0  0  0  0  0  0
  -18.1688   13.9635   24.8366 N   0  0  0  0  0  0  0  0  0  0  0  0
  -17.3001   13.9840   24.3285 H   0  0  0  0  0  0  0  0  0  0  0  0
  -19.0085   13.5756   24.4438 H   0  0  0  0  0  0  0  0  0  0  0  0
  -19.4586   14.4435   26.8006 C   0  0  0  0  0  0  0  0  0  0  0  0
  -19.5331   15.3466   27.4166 H   0  0  0  0  0  0  0  0  0  0  0  0
  -20.2769   14.4742   26.0712 H   0  0  0  0  0  0  0  0  0  0  0  0
  -19.5541   13.1947   27.6669 C   0  0  0  0  0  0  0  0  0  0  0  0
  -19.5889   13.4527   28.7309 H   0  0  0  0  0  0  0  0  0  0  0  0
  -18.6775   12.5487   27.5341 H   0  0  0  0  0  0  0  0  0  0  0  0
  -20.7307   12.4090   27.3459 N   0  0  0  0  0  0  0  0  0  0  0  0
  -20.7830   11.2860   26.5529 C   0  0  0  0  0  0  0  0  0  0  0  0
  -19.5916   10.7042   25.8798 C   0  0  0  0  0  0  0  0  0  0  0  0
  -19.8536    9.7641   25.3852 H   0  0  0  0  0  0  0  0  0  0  0  0
  -18.7981   10.4933   26.6021 H   0  0  0  0  0  0  0  0  0  0  0  0
  -19.2072   11.3891   25.1180 H   0  0  0  0  0  0  0  0  0  0  0  0
  -21.9815   10.8115   26.4731 N   0  0  0  0  0  0  0  0  0  0  0  0
  -22.7657   11.6453   27.2390 C   0  0  0  0  0  0  0  0  0  0  0  0
  -21.9969   12.6505   27.7897 C   0  0  0  0  0  0  0  0  0  0  0  0
  -22.5299   13.6489   28.6182 C   0  0  0  0  0  0  0  0  0  0  0  0
  -21.9181   14.4123   29.0249 H   0  0  0  0  0  0  0  0  0  0  0  0
  -23.8895   13.6036   28.8857 C   0  0  0  0  0  0  0  0  0  0  0  0
  -24.3322   14.3381   29.5065 H   0  0  0  0  0  0  0  0  0  0  0  0
  -24.6936   12.5807   28.3334 C   0  0  0  0  0  0  0  0  0  0  0  0
  -25.7325   12.5609   28.5478 H   0  0  0  0  0  0  0  0  0  0  0  0
  -24.1391   11.6063   27.5144 C   0  0  0  0  0  0  0  0  0  0  0  0
  -24.7321   10.8381   27.0951 H   0  0  0  0  0  0  0  0  0  0  0  0
  1  2  2  0
  2  3  1  0
  2  6  1  0
  3  4  1  0
  3  5  1  0
  6  7  1  0
  6  8  1  0
  6  9  1  0
  9 10  1  0
  9 11  1  0
  9 12  1  0
 12 13  1  0
 12 20  1  0
 13 14  1  0
 13 18  2  0
 14 15  1  0
 14 16  1  0
 14 17  1  0
 18 19  1  0
 19 20  1  0
 19 27  2  0
 20 21  2  0
 21 22  1  0
 21 23  1  0
 23 24  1  0
 23 25  2  0
 25 26  1  0
 25 27  1  0
 27 28  1  0
M  END
$$$$
