F11_72
     RDKit          3D

 16 17  0  0  0  0  0  0  0  0999 V2000
  -24.1620   15.3186   31.1846 Br  0  0  0  0  0  0  0  0  0  0  0  0
  -23.5007   13.5424   31.1872 C   0  0  0  0  0  0  0  0  0  0  0  0
  -23.3865   12.7528   30.0105 C   0  0  0  0  0  0  0  0  0  0  0  0
  -22.8763   11.4395   30.1504 C   0  0  0  0  0  0  0  0  0  0  0  0
  -22.5040   10.9407   31.3643 N   0  0  0  0  0  0  0  0  0  0  0  0
  -22.6148   11.6770   32.4324 C   0  0  0  0  0  0  0  0  0  0  0  0
  -22.3163   11.2619   33.3641 H   0  0  0  0  0  0  0  0  0  0  0  0
  -23.1132   12.9929   32.3835 C   0  0  0  0  0  0  0  0  0  0  0  0
  -23.1838   13.5516   33.2814 H   0  0  0  0  0  0  0  0  0  0  0  0
  -22.7321   10.6107   29.0763 N   0  0  0  0  0  0  0  0  0  0  0  0
  -23.0679   11.0235   27.8858 C   0  0  0  0  0  0  0  0  0  0  0  0
  -22.9447   10.3561   27.0684 H   0  0  0  0  0  0  0  0  0  0  0  0
  -23.5839   12.3173   27.6597 C   0  0  0  0  0  0  0  0  0  0  0  0
  -23.8413   12.6051   26.6728 H   0  0  0  0  0  0  0  0  0  0  0  0
  -23.7468   13.1862   28.7083 C   0  0  0  0  0  0  0  0  0  0  0  0
  -24.1343   14.1580   28.5411 H   0  0  0  0  0  0  0  0  0  0  0  0
  1  2  1  0
  2  3  1  0
  2  8  2  0
  3  4  1  0
  3 15  2  0
  4  5  1  0
  4 10  2  0
  5  6  2  0
  6  7  1  0
  6  8  1  0
  8  9  1  0
 10 11  1  0
 11 12  1  0
 11 13  2  0
 13 14  1  0
 13 15  1  0
 15 16  1  0
M  END
$$$$
