F616_57
     RDKit          3D

 26 26  0  0  0  0  0  0  0  0999 V2000
  -15.7553   17.7926   27.0382 S   0  0  0  0  0  0  0  0  0  0  0  0
  -15.7894   17.8469   25.5929 O   0  0  0  0  0  0  0  0  0  0  0  0
  -15.8572   16.5388   27.7542 O   0  0  0  0  0  0  0  0  0  0  0  0
  -16.9546   18.8021   27.6549 N   0  0  0  0  0  0  0  0  0  0  0  0
  -16.9905   18.8509   28.6762 H   0  0  0  0  0  0  0  0  0  0  0  0
  -17.3295   20.0245   26.9188 C   0  0  0  0  0  0  0  0  0  0  0  0
  -16.4081   20.5607   26.6659 H   0  0  0  0  0  0  0  0  0  0  0  0
  -17.8502   19.7775   25.9872 H   0  0  0  0  0  0  0  0  0  0  0  0
  -18.2049   20.9243   27.7943 C   0  0  0  0  0  0  0  0  0  0  0  0
  -17.6628   21.2251   28.7002 H   0  0  0  0  0  0  0  0  0  0  0  0
  -18.4184   21.8537   27.2512 H   0  0  0  0  0  0  0  0  0  0  0  0
  -19.5177   20.2787   28.1805 C   0  0  0  0  0  0  0  0  0  0  0  0
  -20.5391   20.1452   27.2325 C   0  0  0  0  0  0  0  0  0  0  0  0
  -20.4022   20.5072   26.2468 H   0  0  0  0  0  0  0  0  0  0  0  0
  -21.7427   19.5362   27.5795 C   0  0  0  0  0  0  0  0  0  0  0  0
  -22.5230   19.4298   26.8711 H   0  0  0  0  0  0  0  0  0  0  0  0
  -21.9055   19.0658   28.8746 C   0  0  0  0  0  0  0  0  0  0  0  0
  -23.0636   18.4792   29.2101 F   0  0  0  0  0  0  0  0  0  0  0  0
  -20.9080   19.1804   29.8320 C   0  0  0  0  0  0  0  0  0  0  0  0
  -21.0604   18.8052   30.8098 H   0  0  0  0  0  0  0  0  0  0  0  0
  -19.7079   19.7923   29.4779 C   0  0  0  0  0  0  0  0  0  0  0  0
  -18.9334   19.8793   30.1975 H   0  0  0  0  0  0  0  0  0  0  0  0
  -14.2762   18.6125   27.5930 C   0  0  0  0  0  0  0  0  0  0  0  0
  -14.2071   19.5928   27.1183 H   0  0  0  0  0  0  0  0  0  0  0  0
  -13.4216   18.0003   27.2960 H   0  0  0  0  0  0  0  0  0  0  0  0
  -14.3068   18.7019   28.6801 H   0  0  0  0  0  0  0  0  0  0  0  0
  1  2  2  0
  1  3  2  0
  1  4  1  0
  1 23  1  0
  4  5  1  0
  4  6  1  0
  6  7  1  0
  6  8  1  0
  6  9  1  0
  9 10  1  0
  9 11  1  0
  9 12  1  0
 12 13  1  0
 12 21  2  0
 13 14  1  0
 13 15  2  0
 15 16  1  0
 15 17  1  0
 17 18  1  0
 17 19  2  0
 19 20  1  0
 19 21  1  0
 21 22  1  0
 23 24  1  0
 23 25  1  0
 23 26  1  0
M  END
$$$$
