F650_1
     RDKit          3D

 23 24  0  0  0  0  0  0  0  0999 V2000
  -22.4670   12.8167   29.4273 O   0  0  0  0  0  0  0  0  0  0  0  0
  -23.6451   13.1173   29.2621 C   0  0  0  0  0  0  0  0  0  0  0  0
  -24.3354   13.5844   30.3687 N   0  0  0  0  0  0  0  0  0  0  0  0
  -25.7543   13.9075   30.4714 C   0  0  0  0  0  0  0  0  0  0  0  0
  -26.0594   14.6288   29.7123 H   0  0  0  0  0  0  0  0  0  0  0  0
  -26.3223   12.9805   30.3402 H   0  0  0  0  0  0  0  0  0  0  0  0
  -25.9262   14.4841   31.8718 C   0  0  0  0  0  0  0  0  0  0  0  0
  -25.7692   15.5696   31.8498 H   0  0  0  0  0  0  0  0  0  0  0  0
  -26.9179   14.2912   32.2873 H   0  0  0  0  0  0  0  0  0  0  0  0
  -24.8078   13.8219   32.6616 C   0  0  0  0  0  0  0  0  0  0  0  0
  -25.1069   12.8061   32.9466 H   0  0  0  0  0  0  0  0  0  0  0  0
  -24.5406   14.3705   33.5689 H   0  0  0  0  0  0  0  0  0  0  0  0
  -23.6727   13.7674   31.6526 C   0  0  0  0  0  0  0  0  0  0  0  0
  -22.9654   12.9596   31.8607 H   0  0  0  0  0  0  0  0  0  0  0  0
  -23.1256   14.7167   31.6124 H   0  0  0  0  0  0  0  0  0  0  0  0
  -24.3201   12.9383   27.9909 C   0  0  0  0  0  0  0  0  0  0  0  0
  -24.3171   11.7699   27.2881 C   0  0  0  0  0  0  0  0  0  0  0  0
  -23.8833   10.8274   27.5021 H   0  0  0  0  0  0  0  0  0  0  0  0
  -25.0105   12.0115   26.1641 N   0  0  0  0  0  0  0  0  0  0  0  0
  -25.1884   11.3162   25.4138 H   0  0  0  0  0  0  0  0  0  0  0  0
  -25.4597   13.2958   26.1043 N   0  0  0  0  0  0  0  0  0  0  0  0
  -25.0309   13.8476   27.2035 C   0  0  0  0  0  0  0  0  0  0  0  0
  -25.2015   14.8663   27.4427 H   0  0  0  0  0  0  0  0  0  0  0  0
  1  2  2  0
  2  3  1  0
  2 16  1  0
  3  4  1  0
  3 13  1  0
  4  5  1  0
  4  6  1  0
  4  7  1  0
  7  8  1  0
  7  9  1  0
  7 10  1  0
 10 11  1  0
 10 12  1  0
 10 13  1  0
 13 14  1  0
 13 15  1  0
 16 17  2  0
 16 22  1  0
 17 18  1  0
 17 19  1  0
 19 20  1  0
 19 21  1  0
 21 22  2  0
 22 23  1  0
M  END
$$$$
