F616_21
     RDKit          3D

 26 26  0  0  0  0  0  0  0  0999 V2000
  -15.0376   17.9587   26.7696 S   0  0  0  0  0  0  0  0  0  0  0  0
  -14.1267   17.4765   25.7544 O   0  0  0  0  0  0  0  0  0  0  0  0
  -14.8422   17.6561   28.1716 O   0  0  0  0  0  0  0  0  0  0  0  0
  -16.6023   17.4701   26.3816 N   0  0  0  0  0  0  0  0  0  0  0  0
  -17.0584   18.0289   25.6560 H   0  0  0  0  0  0  0  0  0  0  0  0
  -16.9545   16.0385   26.4357 C   0  0  0  0  0  0  0  0  0  0  0  0
  -16.4225   15.5303   25.6237 H   0  0  0  0  0  0  0  0  0  0  0  0
  -16.6393   15.5923   27.3852 H   0  0  0  0  0  0  0  0  0  0  0  0
  -18.4607   15.8540   26.2362 C   0  0  0  0  0  0  0  0  0  0  0  0
  -19.0096   16.1735   27.1316 H   0  0  0  0  0  0  0  0  0  0  0  0
  -18.7980   16.5146   25.4273 H   0  0  0  0  0  0  0  0  0  0  0  0
  -18.8424   14.4317   25.8886 C   0  0  0  0  0  0  0  0  0  0  0  0
  -19.3424   13.5780   26.8789 C   0  0  0  0  0  0  0  0  0  0  0  0
  -19.4426   13.9194   27.8763 H   0  0  0  0  0  0  0  0  0  0  0  0
  -19.7108   12.2733   26.5594 C   0  0  0  0  0  0  0  0  0  0  0  0
  -20.0901   11.6180   27.3001 H   0  0  0  0  0  0  0  0  0  0  0  0
  -19.5750   11.8419   25.2478 C   0  0  0  0  0  0  0  0  0  0  0  0
  -19.9293   10.5863   24.9386 F   0  0  0  0  0  0  0  0  0  0  0  0
  -19.0873   12.6687   24.2460 C   0  0  0  0  0  0  0  0  0  0  0  0
  -19.0020   12.3119   23.2533 H   0  0  0  0  0  0  0  0  0  0  0  0
  -18.7192   13.9714   24.5737 C   0  0  0  0  0  0  0  0  0  0  0  0
  -18.3525   14.6171   23.8162 H   0  0  0  0  0  0  0  0  0  0  0  0
  -15.1645   19.7270   26.6116 C   0  0  0  0  0  0  0  0  0  0  0  0
  -15.3788   19.9820   25.5723 H   0  0  0  0  0  0  0  0  0  0  0  0
  -14.2055   20.1598   26.9052 H   0  0  0  0  0  0  0  0  0  0  0  0
  -15.9515   20.0868   27.2765 H   0  0  0  0  0  0  0  0  0  0  0  0
  1  2  2  0
  1  3  2  0
  1  4  1  0
  1 23  1  0
  4  5  1  0
  4  6  1  0
  6  7  1  0
  6  8  1  0
  6  9  1  0
  9 10  1  0
  9 11  1  0
  9 12  1  0
 12 13  1  0
 12 21  2  0
 13 14  1  0
 13 15  2  0
 15 16  1  0
 15 17  1  0
 17 18  1  0
 17 19  2  0
 19 20  1  0
 19 21  1  0
 21 22  1  0
 23 24  1  0
 23 25  1  0
 23 26  1  0
M  END
$$$$
