F558_97
     RDKit          3D

 32 33  0  0  0  0  0  0  0  0999 V2000
  -17.3165   17.6238   27.0510 O   0  0  0  0  0  0  0  0  0  0  0  0
  -16.4130   16.8182   27.2191 C   0  0  0  0  0  0  0  0  0  0  0  0
  -15.1106   17.1325   27.4471 O   0  0  0  0  0  0  0  0  0  0  0  0
  -14.8251   18.5326   27.4073 C   0  0  0  0  0  0  0  0  0  0  0  0
  -15.4054   19.0634   28.1678 H   0  0  0  0  0  0  0  0  0  0  0  0
  -15.0317   18.9352   26.4101 H   0  0  0  0  0  0  0  0  0  0  0  0
  -13.7621   18.6672   27.6229 H   0  0  0  0  0  0  0  0  0  0  0  0
  -16.5463   15.4642   27.1784 N   0  0  0  0  0  0  0  0  0  0  0  0
  -15.6580   14.9627   27.2704 H   0  0  0  0  0  0  0  0  0  0  0  0
  -17.7119   14.6840   27.0176 C   0  0  0  0  0  0  0  0  0  0  0  0
  -18.7872   15.0720   26.2146 C   0  0  0  0  0  0  0  0  0  0  0  0
  -18.7671   15.9912   25.6919 H   0  0  0  0  0  0  0  0  0  0  0  0
  -19.8978   14.2414   26.1119 C   0  0  0  0  0  0  0  0  0  0  0  0
  -20.7142   14.5374   25.5034 H   0  0  0  0  0  0  0  0  0  0  0  0
  -19.9477   13.0302   26.8048 C   0  0  0  0  0  0  0  0  0  0  0  0
  -21.1679   12.1424   26.7050 C   0  0  0  0  0  0  0  0  0  0  0  0
  -20.8883   11.1114   26.9594 H   0  0  0  0  0  0  0  0  0  0  0  0
  -21.5048   12.0868   25.6613 H   0  0  0  0  0  0  0  0  0  0  0  0
  -22.3108   12.5944   27.5783 C   0  0  0  0  0  0  0  0  0  0  0  0
  -23.5358   11.9379   27.5626 C   0  0  0  0  0  0  0  0  0  0  0  0
  -23.6859   11.0910   26.9459 H   0  0  0  0  0  0  0  0  0  0  0  0
  -24.5766   12.3962   28.3639 C   0  0  0  0  0  0  0  0  0  0  0  0
  -25.5152   11.9012   28.3569 H   0  0  0  0  0  0  0  0  0  0  0  0
  -24.4386   13.4568   29.1565 N   0  0  0  0  0  0  0  0  0  0  0  0
  -23.2749   14.1036   29.1862 C   0  0  0  0  0  0  0  0  0  0  0  0
  -23.1912   14.9482   29.8233 H   0  0  0  0  0  0  0  0  0  0  0  0
  -22.1924   13.7008   28.4108 C   0  0  0  0  0  0  0  0  0  0  0  0
  -21.2834   14.2434   28.4552 H   0  0  0  0  0  0  0  0  0  0  0  0
  -18.8712   12.6595   27.6145 C   0  0  0  0  0  0  0  0  0  0  0  0
  -18.8979   11.7451   28.1494 H   0  0  0  0  0  0  0  0  0  0  0  0
  -17.7555   13.4826   27.7243 C   0  0  0  0  0  0  0  0  0  0  0  0
  -16.9404   13.1942   28.3362 H   0  0  0  0  0  0  0  0  0  0  0  0
  1  2  2  0
  2  3  1  0
  2  8  1  0
  3  4  1  0
  4  5  1  0
  4  6  1  0
  4  7  1  0
  8  9  1  0
  8 10  1  0
 10 11  1  0
 10 31  2  0
 11 12  1  0
 11 13  2  0
 13 14  1  0
 13 15  1  0
 15 16  1  0
 15 29  2  0
 16 17  1  0
 16 18  1  0
 16 19  1  0
 19 20  1  0
 19 27  2  0
 20 21  1  0
 20 22  2  0
 22 23  1  0
 22 24  1  0
 24 25  2  0
 25 26  1  0
 25 27  1  0
 27 28  1  0
 29 30  1  0
 29 31  1  0
 31 32  1  0
M  END
$$$$
