F96_90
     RDKit          3D

 19 19  0  0  0  0  0  0  0  0999 V2000
  -20.1552   19.8770   26.6475 O   0  0  0  0  0  0  0  0  0  0  0  0
  -19.3522   19.9067   27.5691 C   0  0  0  0  0  0  0  0  0  0  0  0
  -18.4752   18.9341   27.7734 N   0  0  0  0  0  0  0  0  0  0  0  0
  -17.8357   18.9842   28.5478 H   0  0  0  0  0  0  0  0  0  0  0  0
  -18.4014   17.7722   26.9133 C   0  0  0  0  0  0  0  0  0  0  0  0
  -18.9235   16.9432   27.4034 H   0  0  0  0  0  0  0  0  0  0  0  0
  -18.9240   17.9929   25.9763 H   0  0  0  0  0  0  0  0  0  0  0  0
  -16.9727   17.4408   26.6711 C   0  0  0  0  0  0  0  0  0  0  0  0
  -16.1281   18.0460   25.8030 C   0  0  0  0  0  0  0  0  0  0  0  0
  -16.2683   18.8499   25.1270 H   0  0  0  0  0  0  0  0  0  0  0  0
  -14.9458   17.4076   25.9366 N   0  0  0  0  0  0  0  0  0  0  0  0
  -14.0808   17.6327   25.4105 H   0  0  0  0  0  0  0  0  0  0  0  0
  -15.0093   16.4093   26.8558 N   0  0  0  0  0  0  0  0  0  0  0  0
  -16.2372   16.4383   27.2955 C   0  0  0  0  0  0  0  0  0  0  0  0
  -16.6059   15.7695   28.0325 H   0  0  0  0  0  0  0  0  0  0  0  0
  -19.3158   21.0344   28.5628 C   0  0  0  0  0  0  0  0  0  0  0  0
  -18.3227   21.1366   29.0090 H   0  0  0  0  0  0  0  0  0  0  0  0
  -20.0454   20.8391   29.3523 H   0  0  0  0  0  0  0  0  0  0  0  0
  -19.5661   21.9713   28.0573 H   0  0  0  0  0  0  0  0  0  0  0  0
  1  2  2  0
  2  3  1  0
  2 16  1  0
  3  4  1  0
  3  5  1  0
  5  6  1  0
  5  7  1  0
  5  8  1  0
  8  9  2  0
  8 14  1  0
  9 10  1  0
  9 11  1  0
 11 12  1  0
 11 13  1  0
 13 14  2  0
 14 15  1  0
 16 17  1  0
 16 18  1  0
 16 19  1  0
M  END
