F367_7
     RDKit          3D

 31 32  0  0  0  0  0  0  0  0999 V2000
  -20.9464   13.8907   28.1381 O   0  0  0  0  0  0  0  0  0  0  0  0
  -20.7935   13.1613   27.1670 C   0  0  0  0  0  0  0  0  0  0  0  0
  -21.5208   12.0089   27.1434 N   0  0  0  0  0  0  0  0  0  0  0  0
  -21.5080   11.4045   26.3134 H   0  0  0  0  0  0  0  0  0  0  0  0
  -22.3614   11.6060   28.2528 C   0  0  0  0  0  0  0  0  0  0  0  0
  -21.7810   11.6934   29.1786 H   0  0  0  0  0  0  0  0  0  0  0  0
  -22.6330   10.5523   28.1232 H   0  0  0  0  0  0  0  0  0  0  0  0
  -23.5661   12.4767   28.2936 C   0  0  0  0  0  0  0  0  0  0  0  0
  -23.7695   13.5543   29.0877 C   0  0  0  0  0  0  0  0  0  0  0  0
  -23.1600   14.0152   29.8193 H   0  0  0  0  0  0  0  0  0  0  0  0
  -25.0029   14.0139   28.7799 N   0  0  0  0  0  0  0  0  0  0  0  0
  -25.7001   15.1491   29.3466 C   0  0  0  0  0  0  0  0  0  0  0  0
  -26.5860   14.7704   29.8682 H   0  0  0  0  0  0  0  0  0  0  0  0
  -25.0402   15.6037   30.0929 H   0  0  0  0  0  0  0  0  0  0  0  0
  -26.1017   16.1630   28.2906 C   0  0  0  0  0  0  0  0  0  0  0  0
  -26.7580   15.7099   27.5396 H   0  0  0  0  0  0  0  0  0  0  0  0
  -25.2244   16.5602   27.7696 H   0  0  0  0  0  0  0  0  0  0  0  0
  -26.6341   17.0007   28.7509 H   0  0  0  0  0  0  0  0  0  0  0  0
  -25.5898   13.2639   27.8133 N   0  0  0  0  0  0  0  0  0  0  0  0
  -24.7170   12.3370   27.5278 C   0  0  0  0  0  0  0  0  0  0  0  0
  -24.8862   11.5877   26.7961 H   0  0  0  0  0  0  0  0  0  0  0  0
  -19.9100   13.5046   26.0362 C   0  0  0  0  0  0  0  0  0  0  0  0
  -19.3027   14.7667   26.0340 C   0  0  0  0  0  0  0  0  0  0  0  0
  -19.4905   15.4416   26.8322 H   0  0  0  0  0  0  0  0  0  0  0  0
  -18.4885   15.1675   25.0555 N   0  0  0  0  0  0  0  0  0  0  0  0
  -18.2265   14.3498   24.0379 C   0  0  0  0  0  0  0  0  0  0  0  0
  -17.5754   14.6971   23.2754 H   0  0  0  0  0  0  0  0  0  0  0  0
  -18.7810   13.0747   23.9655 C   0  0  0  0  0  0  0  0  0  0  0  0
  -18.5497   12.4447   23.1468 H   0  0  0  0  0  0  0  0  0  0  0  0
  -19.6324   12.6373   24.9720 C   0  0  0  0  0  0  0  0  0  0  0  0
  -20.0496   11.6651   24.9292 H   0  0  0  0  0  0  0  0  0  0  0  0
  1  2  2  0
  2  3  1  0
  2 22  1  0
  3  4  1  0
  3  5  1  0
  5  6  1  0
  5  7  1  0
  5  8  1  0
  8  9  2  0
  8 20  1  0
  9 10  1  0
  9 11  1  0
 11 12  1  0
 11 19  1  0
 12 13  1  0
 12 14  1  0
 12 15  1  0
 15 16  1  0
 15 17  1  0
 15 18  1  0
 19 20  2  0
 20 21  1  0
 22 23  1  0
 22 30  2  0
 23 24  1  0
 23 25  2  0
 25 26  1  0
 26 27  1  0
 26 28  2  0
 28 29  1  0
 28 30  1  0
 30 31  1  0
M  END
$$$$
