F389_24
     RDKit          3D

 18 18  0  0  0  0  0  0  0  0999 V2000
  -22.5987   13.4797   29.6614 O   0  0  0  0  0  0  0  0  0  0  0  0
  -22.9142   13.4137   28.4821 C   0  0  0  0  0  0  0  0  0  0  0  0
  -22.1119   12.9288   27.4879 O   0  0  0  0  0  0  0  0  0  0  0  0
  -20.7277   12.7412   27.8215 C   0  0  0  0  0  0  0  0  0  0  0  0
  -20.6967   12.1092   28.7154 H   0  0  0  0  0  0  0  0  0  0  0  0
  -20.2493   13.6920   28.0816 H   0  0  0  0  0  0  0  0  0  0  0  0
  -20.0061   12.0492   26.6814 C   0  0  0  0  0  0  0  0  0  0  0  0
  -20.0239   12.6630   25.7753 H   0  0  0  0  0  0  0  0  0  0  0  0
  -20.4970   11.1025   26.4331 H   0  0  0  0  0  0  0  0  0  0  0  0
  -18.9646   11.8474   26.9470 H   0  0  0  0  0  0  0  0  0  0  0  0
  -24.2059   13.8564   27.9897 C   0  0  0  0  0  0  0  0  0  0  0  0
  -25.0975   14.6738   28.6198 C   0  0  0  0  0  0  0  0  0  0  0  0
  -25.0660   15.1552   29.5632 H   0  0  0  0  0  0  0  0  0  0  0  0
  -26.1395   14.7975   27.7813 N   0  0  0  0  0  0  0  0  0  0  0  0
  -26.9934   15.3595   27.9674 H   0  0  0  0  0  0  0  0  0  0  0  0
  -25.9576   14.0916   26.6320 N   0  0  0  0  0  0  0  0  0  0  0  0
  -24.7904   13.5272   26.7658 C   0  0  0  0  0  0  0  0  0  0  0  0
  -24.3557   12.9011   26.0275 H   0  0  0  0  0  0  0  0  0  0  0  0
  1  2  2  0
  2  3  1  0
  2 11  1  0
  3  4  1  0
  4  5  1  0
  4  6  1  0
  4  7  1  0
  7  8  1  0
  7  9  1  0
  7 10  1  0
 11 12  2  0
 11 17  1  0
 12 13  1  0
 12 14  1  0
 14 15  1  0
 14 16  1  0
 16 17  2  0
 17 18  1  0
M  END
$$$$
