F603_75
     RDKit          3D

 24 25  0  0  0  0  0  0  0  0999 V2000
  -19.1650   13.6385   24.8467 S   0  0  0  0  0  0  0  0  0  0  0  0
  -19.6523   14.9283   25.2938 O   0  0  0  0  0  0  0  0  0  0  0  0
  -19.9011   12.8670   23.8586 O   0  0  0  0  0  0  0  0  0  0  0  0
  -18.9076   12.5910   26.2695 C   0  0  0  0  0  0  0  0  0  0  0  0
  -18.6009   11.6052   25.9092 H   0  0  0  0  0  0  0  0  0  0  0  0
  -18.1060   13.0322   26.8681 H   0  0  0  0  0  0  0  0  0  0  0  0
  -20.1694   12.4862   27.0520 C   0  0  0  0  0  0  0  0  0  0  0  0
  -21.4095   12.5689   26.4791 N   0  0  0  0  0  0  0  0  0  0  0  0
  -21.6142   12.7432   25.4849 H   0  0  0  0  0  0  0  0  0  0  0  0
  -22.3359   12.3846   27.4516 C   0  0  0  0  0  0  0  0  0  0  0  0
  -21.6024   12.1902   28.6035 C   0  0  0  0  0  0  0  0  0  0  0  0
  -20.2545   12.2589   28.3207 N   0  0  0  0  0  0  0  0  0  0  0  0
  -22.2776   11.9663   29.8106 C   0  0  0  0  0  0  0  0  0  0  0  0
  -21.7212   11.8181   30.6988 H   0  0  0  0  0  0  0  0  0  0  0  0
  -23.6666   11.9467   29.8169 C   0  0  0  0  0  0  0  0  0  0  0  0
  -24.1876   11.7792   30.7241 H   0  0  0  0  0  0  0  0  0  0  0  0
  -24.3960   12.1479   28.6219 C   0  0  0  0  0  0  0  0  0  0  0  0
  -25.4565   12.1282   28.6490 H   0  0  0  0  0  0  0  0  0  0  0  0
  -23.7370   12.3699   27.4234 C   0  0  0  0  0  0  0  0  0  0  0  0
  -24.2708   12.5233   26.5211 H   0  0  0  0  0  0  0  0  0  0  0  0
  -17.5181   13.8725   24.2278 C   0  0  0  0  0  0  0  0  0  0  0  0
  -16.9188   14.3610   24.9981 H   0  0  0  0  0  0  0  0  0  0  0  0
  -17.5742   14.5050   23.3395 H   0  0  0  0  0  0  0  0  0  0  0  0
  -17.0963   12.8994   23.9673 H   0  0  0  0  0  0  0  0  0  0  0  0
  1  2  2  0
  1  3  2  0
  1  4  1  0
  1 21  1  0
  4  5  1  0
  4  6  1  0
  4  7  1  0
  7  8  1  0
  7 12  2  0
  8  9  1  0
  8 10  1  0
 10 11  1  0
 10 19  2  0
 11 12  1  0
 11 13  2  0
 13 14  1  0
 13 15  1  0
 15 16  1  0
 15 17  2  0
 17 18  1  0
 17 19  1  0
 19 20  1  0
 21 22  1  0
 21 23  1  0
 21 24  1  0
M  END
$$$$
