F199_33
     RDKit          3D

 25 26  0  0  0  0  0  0  0  0999 V2000
  -21.9755   11.7591   29.9729 O   0  0  0  0  0  0  0  0  0  0  0  0
  -21.8871   12.4603   28.9672 C   0  0  0  0  0  0  0  0  0  0  0  0
  -22.9751   13.1967   28.5659 N   0  0  0  0  0  0  0  0  0  0  0  0
  -22.8089   13.7528   27.7155 H   0  0  0  0  0  0  0  0  0  0  0  0
  -24.2201   13.2607   29.1654 C   0  0  0  0  0  0  0  0  0  0  0  0
  -25.1969   14.0648   28.6988 C   0  0  0  0  0  0  0  0  0  0  0  0
  -25.2317   14.7365   27.8830 H   0  0  0  0  0  0  0  0  0  0  0  0
  -26.2464   13.8545   29.5314 N   0  0  0  0  0  0  0  0  0  0  0  0
  -27.5498   14.4648   29.4835 C   0  0  0  0  0  0  0  0  0  0  0  0
  -27.5892   15.1758   28.6548 H   0  0  0  0  0  0  0  0  0  0  0  0
  -27.7233   14.9840   30.4294 H   0  0  0  0  0  0  0  0  0  0  0  0
  -28.2938   13.6781   29.3356 H   0  0  0  0  0  0  0  0  0  0  0  0
  -25.9615   12.9473   30.5034 N   0  0  0  0  0  0  0  0  0  0  0  0
  -24.7233   12.5859   30.2770 C   0  0  0  0  0  0  0  0  0  0  0  0
  -24.2003   11.8796   30.8684 H   0  0  0  0  0  0  0  0  0  0  0  0
  -20.7006   12.5821   28.1445 C   0  0  0  0  0  0  0  0  0  0  0  0
  -19.4980   12.3579   28.6122 N   0  0  0  0  0  0  0  0  0  0  0  0
  -18.6439   12.5555   27.6120 O   0  0  0  0  0  0  0  0  0  0  0  0
  -19.2968   12.9077   26.4999 C   0  0  0  0  0  0  0  0  0  0  0  0
  -18.4871   13.1634   25.2983 C   0  0  0  0  0  0  0  0  0  0  0  0
  -19.1184   13.4513   24.4523 H   0  0  0  0  0  0  0  0  0  0  0  0
  -17.9271   12.2668   25.0159 H   0  0  0  0  0  0  0  0  0  0  0  0
  -17.7732   13.9720   25.4806 H   0  0  0  0  0  0  0  0  0  0  0  0
  -20.6021   12.9367   26.7977 C   0  0  0  0  0  0  0  0  0  0  0  0
  -21.4008   13.1779   26.1454 H   0  0  0  0  0  0  0  0  0  0  0  0
  1  2  2  0
  2  3  1  0
  2 16  1  0
  3  4  1  0
  3  5  1  0
  5  6  2  0
  5 14  1  0
  6  7  1  0
  6  8  1  0
  8  9  1  0
  8 13  1  0
  9 10  1  0
  9 11  1  0
  9 12  1  0
 13 14  2  0
 14 15  1  0
 16 17  2  0
 16 24  1  0
 17 18  1  0
 18 19  1  0
 19 20  1  0
 19 24  2  0
 20 21  1  0
 20 22  1  0
 20 23  1  0
 24 25  1  0
M  END
$$$$
