F126_32
     RDKit          3D

 23 23  0  0  0  0  0  0  0  0999 V2000
  -23.5026   13.1794   27.5249 Cl  0  0  0  0  0  0  0  0  0  0  0  0
  -23.4104   13.0812   29.2415 C   0  0  0  0  0  0  0  0  0  0  0  0
  -23.1763   11.8854   29.9392 C   0  0  0  0  0  0  0  0  0  0  0  0
  -22.9762   10.5559   29.3252 C   0  0  0  0  0  0  0  0  0  0  0  0
  -22.8819   10.2652   28.1421 O   0  0  0  0  0  0  0  0  0  0  0  0
  -22.8817    9.4842   30.1517 N   0  0  0  0  0  0  0  0  0  0  0  0
  -22.7491    8.5554   29.7336 H   0  0  0  0  0  0  0  0  0  0  0  0
  -22.9542    9.6174   31.1685 H   0  0  0  0  0  0  0  0  0  0  0  0
  -23.1232   11.9311   31.2943 N   0  0  0  0  0  0  0  0  0  0  0  0
  -23.2901   13.0749   31.9401 C   0  0  0  0  0  0  0  0  0  0  0  0
  -23.2220   13.0705   33.4463 C   0  0  0  0  0  0  0  0  0  0  0  0
  -24.2323   12.8918   33.8357 H   0  0  0  0  0  0  0  0  0  0  0  0
  -22.3216   11.9434   33.9488 C   0  0  0  0  0  0  0  0  0  0  0  0
  -21.2849   12.0723   33.6159 H   0  0  0  0  0  0  0  0  0  0  0  0
  -22.6686   10.9709   33.5809 H   0  0  0  0  0  0  0  0  0  0  0  0
  -22.3202   11.9076   35.0434 H   0  0  0  0  0  0  0  0  0  0  0  0
  -22.7524   14.4261   33.9741 C   0  0  0  0  0  0  0  0  0  0  0  0
  -21.7341   14.6594   33.6436 H   0  0  0  0  0  0  0  0  0  0  0  0
  -22.7602   14.4385   35.0696 H   0  0  0  0  0  0  0  0  0  0  0  0
  -23.4075   15.2311   33.6241 H   0  0  0  0  0  0  0  0  0  0  0  0
  -23.5150   14.2242   31.2965 N   0  0  0  0  0  0  0  0  0  0  0  0
  -23.5774   14.2480   29.9781 C   0  0  0  0  0  0  0  0  0  0  0  0
  -23.7569   15.1709   29.4865 H   0  0  0  0  0  0  0  0  0  0  0  0
  1  2  1  0
  2  3  1  0
  2 22  2  0
  3  4  1  0
  3  9  2  0
  4  5  2  0
  4  6  1  0
  6  7  1  0
  6  8  1  0
  9 10  1  0
 10 11  1  0
 10 21  2  0
 11 12  1  0
 11 13  1  0
 11 17  1  0
 13 14  1  0
 13 15  1  0
 13 16  1  0
 17 18  1  0
 17 19  1  0
 17 20  1  0
 21 22  1  0
 22 23  1  0
M  END
$$$$
