F740_70
     RDKit          3D

 26 28  0  0  0  0  0  0  0  0999 V2000
  -25.3510   17.3515   29.8121 O   0  0  0  0  0  0  0  0  0  0  0  0
  -24.4914   16.7305   30.4292 C   0  0  0  0  0  0  0  0  0  0  0  0
  -24.7458   15.4172   30.7352 N   0  0  0  0  0  0  0  0  0  0  0  0
  -23.9909   14.8615   31.1473 H   0  0  0  0  0  0  0  0  0  0  0  0
  -25.9966   14.7749   30.4813 C   0  0  0  0  0  0  0  0  0  0  0  0
  -26.7581   15.0272   31.2164 H   0  0  0  0  0  0  0  0  0  0  0  0
  -26.0487   13.3818   29.9154 C   0  0  0  0  0  0  0  0  0  0  0  0
  -25.1199   12.8850   29.6619 H   0  0  0  0  0  0  0  0  0  0  0  0
  -26.8222   12.7174   30.2824 H   0  0  0  0  0  0  0  0  0  0  0  0
  -26.4684   14.5485   29.0712 C   0  0  0  0  0  0  0  0  0  0  0  0
  -27.5243   14.6831   28.8704 H   0  0  0  0  0  0  0  0  0  0  0  0
  -25.8194   14.8514   28.2585 H   0  0  0  0  0  0  0  0  0  0  0  0
  -23.1871   17.3204   30.8019 C   0  0  0  0  0  0  0  0  0  0  0  0
  -22.6815   18.3686   30.0094 C   0  0  0  0  0  0  0  0  0  0  0  0
  -23.2200   18.7201   29.1679 H   0  0  0  0  0  0  0  0  0  0  0  0
  -21.4638   18.9343   30.3482 C   0  0  0  0  0  0  0  0  0  0  0  0
  -20.8403   19.9443   29.6875 O   0  0  0  0  0  0  0  0  0  0  0  0
  -19.6469   20.0956   30.4841 C   0  0  0  0  0  0  0  0  0  0  0  0
  -18.7743   19.9267   29.8441 H   0  0  0  0  0  0  0  0  0  0  0  0
  -19.6088   21.1216   30.8678 H   0  0  0  0  0  0  0  0  0  0  0  0
  -19.5841   19.1829   31.6003 O   0  0  0  0  0  0  0  0  0  0  0  0
  -20.7490   18.5012   31.4375 C   0  0  0  0  0  0  0  0  0  0  0  0
  -21.2185   17.4784   32.2492 C   0  0  0  0  0  0  0  0  0  0  0  0
  -20.6565   17.1627   33.0909 H   0  0  0  0  0  0  0  0  0  0  0  0
  -22.4435   16.8914   31.9295 C   0  0  0  0  0  0  0  0  0  0  0  0
  -22.8224   16.1219   32.5524 H   0  0  0  0  0  0  0  0  0  0  0  0
  1  2  2  0
  2  3  1  0
  2 13  1  0
  3  4  1  0
  3  5  1  0
  5  6  1  0
  5  7  1  0
  5 10  1  0
  7  8  1  0
  7  9  1  0
  7 10  1  0
 10 11  1  0
 10 12  1  0
 13 14  1  0
 13 25  2  0
 14 15  1  0
 14 16  2  0
 16 17  1  0
 16 22  1  0
 17 18  1  0
 18 19  1  0
 18 20  1  0
 18 21  1  0
 21 22  1  0
 22 23  2  0
 23 24  1  0
 23 25  1  0
 25 26  1  0
M  END
$$$$
