F229_60
     RDKit          3D

 27 28  0  0  0  0  0  0  0  0999 V2000
  -21.4142   12.0327   29.7104 F   0  0  0  0  0  0  0  0  0  0  0  0
  -22.5864   12.3386   29.1315 C   0  0  0  0  0  0  0  0  0  0  0  0
  -22.6495   12.6965   27.7698 C   0  0  0  0  0  0  0  0  0  0  0  0
  -21.5403   12.7562   26.9359 N   0  0  0  0  0  0  0  0  0  0  0  0
  -21.6442   12.4794   25.9668 H   0  0  0  0  0  0  0  0  0  0  0  0
  -20.2215   13.2009   27.3516 C   0  0  0  0  0  0  0  0  0  0  0  0
  -20.2990   13.7128   28.3187 H   0  0  0  0  0  0  0  0  0  0  0  0
  -19.5684   12.3321   27.4967 H   0  0  0  0  0  0  0  0  0  0  0  0
  -19.5548   14.1268   26.3805 C   0  0  0  0  0  0  0  0  0  0  0  0
  -19.2119   13.8486   25.0589 C   0  0  0  0  0  0  0  0  0  0  0  0
  -19.4088   12.5911   24.2984 C   0  0  0  0  0  0  0  0  0  0  0  0
  -20.4538   12.2681   24.3535 H   0  0  0  0  0  0  0  0  0  0  0  0
  -18.7803   11.7947   24.7107 H   0  0  0  0  0  0  0  0  0  0  0  0
  -19.1514   12.7120   23.2410 H   0  0  0  0  0  0  0  0  0  0  0  0
  -18.6537   14.8823   24.4947 N   0  0  0  0  0  0  0  0  0  0  0  0
  -18.6370   15.8406   25.4532 N   0  0  0  0  0  0  0  0  0  0  0  0
  -18.2469   16.7882   25.2929 H   0  0  0  0  0  0  0  0  0  0  0  0
  -19.1819   15.4076   26.6082 C   0  0  0  0  0  0  0  0  0  0  0  0
  -19.2584   16.0225   27.4662 H   0  0  0  0  0  0  0  0  0  0  0  0
  -23.8958   12.9958   27.2166 C   0  0  0  0  0  0  0  0  0  0  0  0
  -23.9688   13.2527   26.1925 H   0  0  0  0  0  0  0  0  0  0  0  0
  -25.0407   12.9552   28.0108 C   0  0  0  0  0  0  0  0  0  0  0  0
  -25.9846   13.1868   27.5861 H   0  0  0  0  0  0  0  0  0  0  0  0
  -24.9600   12.6102   29.3620 C   0  0  0  0  0  0  0  0  0  0  0  0
  -25.8380   12.5826   29.9559 H   0  0  0  0  0  0  0  0  0  0  0  0
  -23.7243   12.2980   29.9249 C   0  0  0  0  0  0  0  0  0  0  0  0
  -23.6501   12.0282   30.9475 H   0  0  0  0  0  0  0  0  0  0  0  0
  1  2  1  0
  2  3  1  0
  2 26  2  0
  3  4  1  0
  3 20  2  0
  4  5  1  0
  4  6  1  0
  6  7  1  0
  6  8  1  0
  6  9  1  0
  9 10  1  0
  9 18  2  0
 10 11  1  0
 10 15  2  0
 11 12  1  0
 11 13  1  0
 11 14  1  0
 15 16  1  0
 16 17  1  0
 16 18  1  0
 18 19  1  0
 20 21  1  0
 20 22  1  0
 22 23  1  0
 22 24  2  0
 24 25  1  0
 24 26  1  0
 26 27  1  0
M  END
$$$$
