F393_12
     RDKit          3D

 24 24  0  0  0  0  0  0  0  0999 V2000
  -25.5921   15.6796   27.3638 O   0  0  0  0  0  0  0  0  0  0  0  0
  -24.9727   15.3349   28.3624 C   0  0  0  0  0  0  0  0  0  0  0  0
  -24.4906   16.1956   29.2996 O   0  0  0  0  0  0  0  0  0  0  0  0
  -24.8077   17.5744   29.0698 C   0  0  0  0  0  0  0  0  0  0  0  0
  -24.4467   17.8763   28.0809 H   0  0  0  0  0  0  0  0  0  0  0  0
  -25.8922   17.7175   29.1280 H   0  0  0  0  0  0  0  0  0  0  0  0
  -24.1227   18.4013   30.1401 C   0  0  0  0  0  0  0  0  0  0  0  0
  -23.0382   18.2494   30.1105 H   0  0  0  0  0  0  0  0  0  0  0  0
  -24.4603   18.0962   31.1364 H   0  0  0  0  0  0  0  0  0  0  0  0
  -24.3340   19.4661   30.0061 H   0  0  0  0  0  0  0  0  0  0  0  0
  -24.6990   14.0211   28.6427 N   0  0  0  0  0  0  0  0  0  0  0  0
  -25.1535   12.9489   27.7580 C   0  0  0  0  0  0  0  0  0  0  0  0
  -25.9442   12.4160   28.2989 H   0  0  0  0  0  0  0  0  0  0  0  0
  -25.5832   13.3479   26.8336 H   0  0  0  0  0  0  0  0  0  0  0  0
  -24.0044   11.9917   27.4411 C   0  0  0  0  0  0  0  0  0  0  0  0
  -23.2348   12.4837   26.8338 H   0  0  0  0  0  0  0  0  0  0  0  0
  -24.3778   11.1303   26.8779 H   0  0  0  0  0  0  0  0  0  0  0  0
  -23.4027   11.4986   28.6470 O   0  0  0  0  0  0  0  0  0  0  0  0
  -22.8687   12.5782   29.4282 C   0  0  0  0  0  0  0  0  0  0  0  0
  -22.4085   12.1472   30.3229 H   0  0  0  0  0  0  0  0  0  0  0  0
  -22.0806   13.0784   28.8518 H   0  0  0  0  0  0  0  0  0  0  0  0
  -23.9696   13.5622   29.8269 C   0  0  0  0  0  0  0  0  0  0  0  0
  -23.5426   14.3951   30.3921 H   0  0  0  0  0  0  0  0  0  0  0  0
  -24.7049   13.0601   30.4660 H   0  0  0  0  0  0  0  0  0  0  0  0
  1  2  2  0
  2  3  1  0
  2 11  1  0
  3  4  1  0
  4  5  1  0
  4  6  1  0
  4  7  1  0
  7  8  1  0
  7  9  1  0
  7 10  1  0
 11 12  1  0
 11 22  1  0
 12 13  1  0
 12 14  1  0
 12 15  1  0
 15 16  1  0
 15 17  1  0
 15 18  1  0
 18 19  1  0
 19 20  1  0
 19 21  1  0
 19 22  1  0
 22 23  1  0
 22 24  1  0
M  END
$$$$
