F616_16
     RDKit          3D

 26 26  0  0  0  0  0  0  0  0999 V2000
  -15.5080   17.8724   27.0075 S   0  0  0  0  0  0  0  0  0  0  0  0
  -15.1092   17.0409   28.1221 O   0  0  0  0  0  0  0  0  0  0  0  0
  -15.8154   19.2765   27.1787 O   0  0  0  0  0  0  0  0  0  0  0  0
  -16.8397   17.1735   26.2488 N   0  0  0  0  0  0  0  0  0  0  0  0
  -16.9320   17.3956   25.2544 H   0  0  0  0  0  0  0  0  0  0  0  0
  -17.3084   15.8419   26.6774 C   0  0  0  0  0  0  0  0  0  0  0  0
  -16.7006   15.0897   26.1624 H   0  0  0  0  0  0  0  0  0  0  0  0
  -17.1783   15.7086   27.7569 H   0  0  0  0  0  0  0  0  0  0  0  0
  -18.7763   15.6456   26.2910 C   0  0  0  0  0  0  0  0  0  0  0  0
  -19.4351   15.9465   27.1160 H   0  0  0  0  0  0  0  0  0  0  0  0
  -19.0189   16.3146   25.4555 H   0  0  0  0  0  0  0  0  0  0  0  0
  -19.0957   14.2249   25.8800 C   0  0  0  0  0  0  0  0  0  0  0  0
  -19.5815   13.3139   26.8253 C   0  0  0  0  0  0  0  0  0  0  0  0
  -19.7144   13.6112   27.8330 H   0  0  0  0  0  0  0  0  0  0  0  0
  -19.8928   12.0100   26.4472 C   0  0  0  0  0  0  0  0  0  0  0  0
  -20.2608   11.3116   27.1535 H   0  0  0  0  0  0  0  0  0  0  0  0
  -19.7148   11.6369   25.1228 C   0  0  0  0  0  0  0  0  0  0  0  0
  -20.0141   10.3821   24.7573 F   0  0  0  0  0  0  0  0  0  0  0  0
  -19.2400   12.5209   24.1648 C   0  0  0  0  0  0  0  0  0  0  0  0
  -19.1215   12.2076   23.1608 H   0  0  0  0  0  0  0  0  0  0  0  0
  -18.9291   13.8225   24.5509 C   0  0  0  0  0  0  0  0  0  0  0  0
  -18.5729   14.5114   23.8272 H   0  0  0  0  0  0  0  0  0  0  0  0
  -14.2645   17.7425   25.7408 C   0  0  0  0  0  0  0  0  0  0  0  0
  -14.0598   16.6889   25.5427 H   0  0  0  0  0  0  0  0  0  0  0  0
  -13.3585   18.2292   26.1088 H   0  0  0  0  0  0  0  0  0  0  0  0
  -14.6186   18.2512   24.8427 H   0  0  0  0  0  0  0  0  0  0  0  0
  1  2  2  0
  1  3  2  0
  1  4  1  0
  1 23  1  0
  4  5  1  0
  4  6  1  0
  6  7  1  0
  6  8  1  0
  6  9  1  0
  9 10  1  0
  9 11  1  0
  9 12  1  0
 12 13  1  0
 12 21  2  0
 13 14  1  0
 13 15  2  0
 15 16  1  0
 15 17  1  0
 17 18  1  0
 17 19  2  0
 19 20  1  0
 19 21  1  0
 21 22  1  0
 23 24  1  0
 23 25  1  0
 23 26  1  0
M  END
$$$$
