F14_96
     RDKit          3D

 19 19  0  0  0  0  0  0  0  0999 V2000
  -25.4197   17.0702   28.7412 Br  0  0  0  0  0  0  0  0  0  0  0  0
  -24.9867   15.2686   28.5161 C   0  0  0  0  0  0  0  0  0  0  0  0
  -23.8721   14.6238   28.9224 C   0  0  0  0  0  0  0  0  0  0  0  0
  -23.0082   14.9620   29.4337 H   0  0  0  0  0  0  0  0  0  0  0  0
  -24.0240   13.3409   28.5261 N   0  0  0  0  0  0  0  0  0  0  0  0
  -23.1152   12.2292   28.7233 C   0  0  0  0  0  0  0  0  0  0  0  0
  -23.3394   11.4858   27.9503 H   0  0  0  0  0  0  0  0  0  0  0  0
  -22.1023   12.6105   28.5565 H   0  0  0  0  0  0  0  0  0  0  0  0
  -23.2425   11.6339   30.1171 C   0  0  0  0  0  0  0  0  0  0  0  0
  -22.6108   10.7451   30.2304 H   0  0  0  0  0  0  0  0  0  0  0  0
  -24.2863   11.3522   30.2943 H   0  0  0  0  0  0  0  0  0  0  0  0
  -22.8715   12.6210   31.0835 O   0  0  0  0  0  0  0  0  0  0  0  0
  -22.9460   12.1136   32.4093 C   0  0  0  0  0  0  0  0  0  0  0  0
  -22.6660   12.9129   33.1002 H   0  0  0  0  0  0  0  0  0  0  0  0
  -22.2501   11.2797   32.5389 H   0  0  0  0  0  0  0  0  0  0  0  0
  -23.9662   11.7925   32.6397 H   0  0  0  0  0  0  0  0  0  0  0  0
  -25.2033   13.1481   27.8717 N   0  0  0  0  0  0  0  0  0  0  0  0
  -25.7793   14.3231   27.8742 C   0  0  0  0  0  0  0  0  0  0  0  0
  -26.7258   14.5106   27.4363 H   0  0  0  0  0  0  0  0  0  0  0  0
  1  2  1  0
  2  3  2  0
  2 18  1  0
  3  4  1  0
  3  5  1  0
  5  6  1  0
  5 17  1  0
  6  7  1  0
  6  8  1  0
  6  9  1  0
  9 10  1  0
  9 11  1  0
  9 12  1  0
 12 13  1  0
 13 14  1  0
 13 15  1  0
 13 16  1  0
 17 18  2  0
 18 19  1  0
M  END
$$$$
