F13_61
     RDKit          3D

 16 16  0  0  0  0  0  0  0  0999 V2000
  -23.9489   17.7271   29.8331 Br  0  0  0  0  0  0  0  0  0  0  0  0
  -24.5873   16.1956   28.9768 C   0  0  0  0  0  0  0  0  0  0  0  0
  -24.3399   14.9062   29.2878 C   0  0  0  0  0  0  0  0  0  0  0  0
  -23.7604   14.4639   30.0552 H   0  0  0  0  0  0  0  0  0  0  0  0
  -25.0259   14.1728   28.3810 N   0  0  0  0  0  0  0  0  0  0  0  0
  -25.0905   12.7295   28.2631 C   0  0  0  0  0  0  0  0  0  0  0  0
  -24.4037   12.3168   29.0103 H   0  0  0  0  0  0  0  0  0  0  0  0
  -26.1114   12.4276   28.5221 H   0  0  0  0  0  0  0  0  0  0  0  0
  -24.7109   12.2578   26.8683 C   0  0  0  0  0  0  0  0  0  0  0  0
  -25.3550   12.7388   26.1267 H   0  0  0  0  0  0  0  0  0  0  0  0
  -24.8008   11.1714   26.7642 H   0  0  0  0  0  0  0  0  0  0  0  0
  -23.3684   12.6363   26.5795 O   0  0  0  0  0  0  0  0  0  0  0  0
  -22.8050   12.2443   27.2696 H   0  0  0  0  0  0  0  0  0  0  0  0
  -25.7084   14.9589   27.5039 N   0  0  0  0  0  0  0  0  0  0  0  0
  -25.4333   16.1829   27.8733 C   0  0  0  0  0  0  0  0  0  0  0  0
  -25.8160   17.0408   27.3835 H   0  0  0  0  0  0  0  0  0  0  0  0
  1  2  1  0
  2  3  2  0
  2 15  1  0
  3  4  1  0
  3  5  1  0
  5  6  1  0
  5 14  1  0
  6  7  1  0
  6  8  1  0
  6  9  1  0
  9 10  1  0
  9 11  1  0
  9 12  1  0
 12 13  1  0
 14 15  2  0
 15 16  1  0
M  END
$$$$
